1

                    Execution started at 20250403.165335         



                    ---------------------------------------
                                     SWAN
                    SIMULATION OF WAVES IN NEAR SHORE AREAS
                             VERSION NUMBER 41.51               
                    ---------------------------------------


    
 PROJECT '' ''
    
 SET 0.00 90.00 0.05 200 1 9.81 1025.00 30
    
 MODE NONSTATIONARY TWODIMENSIONAL
    
 COORDINATES SPHERICAL
    
 
    
 
    
 $ COMPUTATIONAL GRID
    
 $ -------------------------------------------------------------------------------
    
 CGRID REGULAR -78.456705 -9.501024 0.00 0.090803 0.118043 18 24 &
 CIRCLE 36 0.040 1.000 34
 Resolution in sigma-space: df/f =  0.0993
    
 
    
 $ -------------------------------------------------------------------------------
    
 
    
 $ BOTTOM & FRICTION INPUT
    
 $ -------------------------------------------------------------------------------
    
 INPGRID BOTTOM REGULAR -78.456705 -9.501024 0.00 18 24 0.005045 0.004918 &
 READINP BOTTOM +1 '../01_geometry/CASMA_PORT_20241201_20241231_BOTTOM.txt' 3 3 FORMAT '((19f8.2))'
 **  Heading lines file ../01_geometry/CASMA_PORT_20241201_20241231_BOTTOM.txt **
 -> INPGRID BOTTOM REGULAR -78.456705 -9.501024 0.00 18 24 0.005045 0.004918 &      
 -> READINP BOTTOM +1 '../01_geometry/CASMA_PORT_20241201_20241231_BOTTOM.txt' 3 3 F
 ->                                                                                 
    
 
    
 $ -------------------------------------------------------------------------------
    
 
    
 $ WIND INPUT
    
 $ -------------------------------------------------------------------------------
    
 INPGRID WIND REGULAR -78.500000 -9.750000 0.00 1 2 0.250000 0.250000 &
 NONSTATIONARY 20241201.000000 3600.00 SEC 20241231.000000
    
 READINP WIND +1 '../02_bc_dbase/CASMA_PORT_20241201_20241231_WIND.txt' 3 4 1 0 FORMAT '((2f7.2))'
 **  Heading lines file ../02_bc_dbase/CASMA_PORT_20241201_20241231_WIND.txt **
 -> INPGRID WIND REGULAR -78.500000 -9.750000 0.00 1 2 0.250000 0.250000 &          
 -> NONSTATIONARY 20241201.000000 3600.00 SEC 20241231.000000                       
 -> READINP WIND +1 '../02_bc_dbase/CASMA_PORT_20241201_20241231_WIND.txt' 3 4 1 0 F
 ->                                                                                 
 **  Heading lines  **
 -> 20241201.000000                                                                 
    
 
    
 $ -------------------------------------------------------------------------------
    
 
    
 $ HYDRODYNAMIC INPUT
    
 $ -------------------------------------------------------------------------------
    
 $ N/A NO SURFACE INPUT
    
 
    
 $ N/A NO CURRENT INPUT
    
 $ -------------------------------------------------------------------------------
    
 
    
 $ BOUNDARY SPECTRA INPUT
    
 $ -------------------------------------------------------------------------------
    
 BOUNDNEST1 NEST '../04_results/CASMA_PORT_20241201_20241231.nest' CLOSED
    
 $ -------------------------------------------------------------------------------
    
 
    
 $ PHYSICS
    
 $ -------------------------------------------------------------------------------
    
 GEN3
    
 FRICTION JONSWAP
    
 $ -------------------------------------------------------------------------------
    
 
    
 $ NUMERICS
    
 $ -------------------------------------------------------------------------------
    
 PROP BSBT
    
 NUMERIC ACCUR 0.005 0.010 0.005 99.50 NONSTATIONARY 5 0.01
    
 $ -------------------------------------------------------------------------------
    
 
    
 $ OUTPUT
    
 $ -------------------------------------------------------------------------------
    
 
    
 BLOCK 'COMPGRID' NOHEADER '../04_results/CASMA_PORT_20241201_20241231.mat' &
 LAY-OUT 3 XP YP HSIGN TPS PDIR DIR UBOT TMBOT FORCE DEPTH OUTPUT 20241201.000000 3600 SEC
    
 
    
 $ N/A No spectral output
    
 $ -------------------------------------------------------------------------------
    
 
    
 $ LOCKUP
    
 $ -------------------------------------------------------------------------------
    
 INITIAL DEFAULT
    
 COMPUTE NONSTATIONARY 20241201.000000 3600 SEC 20241231.000000
 Boundary data type SWNT processed, time:           0.
 Time of computation ->  20241201.010000      in sec:       3600.
 Boundary data type SWNT processed, time:        3600.
 **  Heading lines  **
 -> 20241201.010000                                                                 

----------------------------------------------------------------
                  COMPUTATIONAL PART OF SWAN
----------------------------------------------------------------

 Gridresolution       : MXC              19 MYC             25
                      : MCGRD           476
                      : MSC              35 MDC             36
                      : MTC             720
                      : NSTATC            1 ITERMX           5
 Propagation flags    : ITFRE             1 IREFR            1
 Source term flags    : IBOT              1 ISURF            1
                      : IWCAP             7 IWIND            5
                      : ITRIAD            0 IQUAD            2
                      : IBRAG             0 IQCM             0
                      : IVEG              0 ITURBV           0
                      : IMUD              0 IICE             0
 Spatial step         : DX       0.5045E-02 DY      0.4918E-02
 Spectral bin         : df/f     0.9930E-01 DDIR    0.1000E+02
 Physical constants   : GRAV     0.9810E+01 RHO     0.1025E+04
 Wind input           : WSPEED   0.0000E+00 DIR     0.0000E+00
                      : ICEWIND  0.00
 Tail parameters      : E(f)     0.4000E+01 E(k)    0.2500E+01
                      : A(f)     0.5000E+01 A(k)    0.3000E+01
 Accuracy parameters  : DREL     0.5000E-02 NPNTS   0.9950E+02
                      : DHOVAL   0.1000E-01 DTOVAL  0.5000E-02
                      : GRWMX    0.1000E-01
 Drying/flooding      : LEVEL    0.0000E+00 DEPMIN  0.5000E-01
 The Cartesian convention for wind and wave directions is used
 Scheme for geographic propagation is BSBT  
 Scheme geogr. space  : PROPSC            1 ICMAX            5
 Scheme spectral space: CSS      0.5000E+00 CDD     0.5000E+00
 Current is off
 Quadruplets          : IQUAD             2
                      : LAMBDA   0.2500E+00 CNL4    0.3000E+08
                      : CSH1     0.5500E+01 CSH2    0.8330E+00
                      : CSH3    -0.1250E+01
 Maximum Ursell nr for Snl4 :    0.1000E+02
 Triads is off
 Bragg scattering is off
 QC scattering is off
 Surfbeat (IEM) is off
 JONSWAP (`73)        : GAMMA    0.3800E-01
 Vegetation is off
 Turbulence is off
 Fluid mud is off
 Dissipation by sea ice is off
 W-cap Alves-Banner   : CDS2     0.5000E-04 BR      0.1750E-02
 Wind drag is Wu
 Yan/Westhuysen wind input
 Battjes&Janssen (`78): ALPHA    0.1000E+01 GAMMA   0.7300E+00
 Set-up is off
 Diffraction is off
 Janssen (`89,`90)    : ALPHA    0.1000E-01 KAPPA   0.4100E+00
 Janssen (`89,`90)    : RHOA     0.1280E+01 RHOW    0.1025E+04
 
 1st and 2nd gen. wind: CF10     0.1880E+03 CF20    0.5900E+00
                      : CF30     0.1200E+00 CF40    0.2500E+03
                      : CF50     0.2300E-02 CF60   -0.2230E+00
                      : CF70     0.0000E+00 CF80   -0.5600E+00
                      : RHOAW    0.1249E-02 EDMLPM  0.3600E-02
                      : CDRAG    0.1230E-02 UMIN    0.1000E+01
                      : LIM_PM   0.1300E+00
 
 accuracy OK in  16.46 % of wet grid points ( 99.50 % required)

 accuracy OK in  16.46 % of wet grid points ( 99.50 % required)

 accuracy OK in  15.61 % of wet grid points ( 99.50 % required)

 accuracy OK in  15.19 % of wet grid points ( 99.50 % required)

 accuracy OK in  15.19 % of wet grid points ( 99.50 % required)

 
 Time of computation ->  20241201.020000      in sec:       7200.
 ** Warning          : data on boundary file exhausted
 **  Heading lines  **
 -> 20241201.020000                                                                 
 accuracy OK in  16.03 % of wet grid points ( 99.50 % required)

 accuracy OK in  15.61 % of wet grid points ( 99.50 % required)

 accuracy OK in  15.19 % of wet grid points ( 99.50 % required)

 accuracy OK in  15.19 % of wet grid points ( 99.50 % required)

 accuracy OK in  15.19 % of wet grid points ( 99.50 % required)

 
 Time of computation ->  20241201.030000      in sec:      10800.
 **  Heading lines  **
 -> 20241201.030000                                                                 
 accuracy OK in  15.61 % of wet grid points ( 99.50 % required)

 accuracy OK in  15.61 % of wet grid points ( 99.50 % required)

 accuracy OK in  15.61 % of wet grid points ( 99.50 % required)

 accuracy OK in  15.19 % of wet grid points ( 99.50 % required)

 accuracy OK in  15.19 % of wet grid points ( 99.50 % required)

 
 Time of computation ->  20241201.040000      in sec:      14400.
 **  Heading lines  **
 -> 20241201.040000                                                                 
 accuracy OK in  16.03 % of wet grid points ( 99.50 % required)

 accuracy OK in  15.61 % of wet grid points ( 99.50 % required)

 accuracy OK in  15.61 % of wet grid points ( 99.50 % required)

 accuracy OK in  15.19 % of wet grid points ( 99.50 % required)

 accuracy OK in  15.19 % of wet grid points ( 99.50 % required)

  ** WARNING : Differences in wave height at the boundary
 Relative difference between input and computation >=   0.10
                         Hs[m]      Hs[m]      Hs[-]
     ix    iy  index   (input) (computed) (relative)
  --------------------------------------------------
     4    25    101       0.07       0.07       0.10
 
 Time of computation ->  20241201.050000      in sec:      18000.
 **  Heading lines  **
 -> 20241201.050000                                                                 
 accuracy OK in  34.60 % of wet grid points ( 99.50 % required)

 accuracy OK in  27.43 % of wet grid points ( 99.50 % required)

 accuracy OK in  20.68 % of wet grid points ( 99.50 % required)

 accuracy OK in  17.72 % of wet grid points ( 99.50 % required)

 accuracy OK in  18.14 % of wet grid points ( 99.50 % required)

  ** WARNING : Differences in wave height at the boundary
 Relative difference between input and computation >=   0.10
                         Hs[m]      Hs[m]      Hs[-]
     ix    iy  index   (input) (computed) (relative)
  --------------------------------------------------
     4    25    101       0.07       0.07       0.10
 
 Time of computation ->  20241201.060000      in sec:      21600.
 **  Heading lines  **
 -> 20241201.060000                                                                 
 accuracy OK in  16.88 % of wet grid points ( 99.50 % required)

 accuracy OK in  22.36 % of wet grid points ( 99.50 % required)

 accuracy OK in  28.27 % of wet grid points ( 99.50 % required)

 accuracy OK in  36.71 % of wet grid points ( 99.50 % required)

 accuracy OK in  42.62 % of wet grid points ( 99.50 % required)

  ** WARNING : Differences in wave height at the boundary
 Relative difference between input and computation >=   0.10
                         Hs[m]      Hs[m]      Hs[-]
     ix    iy  index   (input) (computed) (relative)
  --------------------------------------------------
     4    25    101       0.07       0.07       0.11
 
 Time of computation ->  20241201.070000      in sec:      25200.
 **  Heading lines  **
 -> 20241201.070000                                                                 
 accuracy OK in  42.62 % of wet grid points ( 99.50 % required)

 accuracy OK in  81.43 % of wet grid points ( 99.50 % required)

 accuracy OK in  88.19 % of wet grid points ( 99.50 % required)

 accuracy OK in  85.65 % of wet grid points ( 99.50 % required)

 accuracy OK in  84.81 % of wet grid points ( 99.50 % required)

  ** WARNING : Differences in wave height at the boundary
 Relative difference between input and computation >=   0.10
                         Hs[m]      Hs[m]      Hs[-]
     ix    iy  index   (input) (computed) (relative)
  --------------------------------------------------
     4    25    101       0.07       0.07       0.12
 
 Time of computation ->  20241201.080000      in sec:      28800.
 **  Heading lines  **
 -> 20241201.080000                                                                 
 accuracy OK in  53.59 % of wet grid points ( 99.50 % required)

 accuracy OK in  94.51 % of wet grid points ( 99.50 % required)

 accuracy OK in  96.20 % of wet grid points ( 99.50 % required)

 accuracy OK in  95.36 % of wet grid points ( 99.50 % required)

 accuracy OK in  94.51 % of wet grid points ( 99.50 % required)

  ** WARNING : Differences in wave height at the boundary
 Relative difference between input and computation >=   0.10
                         Hs[m]      Hs[m]      Hs[-]
     ix    iy  index   (input) (computed) (relative)
  --------------------------------------------------
     4    25    101       0.07       0.07       0.13
 
 Time of computation ->  20241201.090000      in sec:      32400.
 **  Heading lines  **
 -> 20241201.090000                                                                 
 accuracy OK in  43.88 % of wet grid points ( 99.50 % required)

 accuracy OK in  68.78 % of wet grid points ( 99.50 % required)

 accuracy OK in  86.50 % of wet grid points ( 99.50 % required)

 accuracy OK in  87.34 % of wet grid points ( 99.50 % required)

 accuracy OK in  83.54 % of wet grid points ( 99.50 % required)

  ** WARNING : Differences in wave height at the boundary
 Relative difference between input and computation >=   0.10
                         Hs[m]      Hs[m]      Hs[-]
     ix    iy  index   (input) (computed) (relative)
  --------------------------------------------------
     4    25    101       0.07       0.08       0.15
 
 Time of computation ->  20241201.100000      in sec:      36000.
 **  Heading lines  **
 -> 20241201.100000                                                                 
 accuracy OK in  97.47 % of wet grid points ( 99.50 % required)

 accuracy OK in  97.05 % of wet grid points ( 99.50 % required)

 accuracy OK in  91.98 % of wet grid points ( 99.50 % required)

 accuracy OK in  88.19 % of wet grid points ( 99.50 % required)

 accuracy OK in  87.76 % of wet grid points ( 99.50 % required)

  ** WARNING : Differences in wave height at the boundary
 Relative difference between input and computation >=   0.10
                         Hs[m]      Hs[m]      Hs[-]
     ix    iy  index   (input) (computed) (relative)
  --------------------------------------------------
     4    25    101       0.07       0.08       0.16
 
 Time of computation ->  20241201.110000      in sec:      39600.
 **  Heading lines  **
 -> 20241201.110000                                                                 
 accuracy OK in  94.94 % of wet grid points ( 99.50 % required)

 accuracy OK in  97.89 % of wet grid points ( 99.50 % required)

 accuracy OK in  98.73 % of wet grid points ( 99.50 % required)

 accuracy OK in  97.05 % of wet grid points ( 99.50 % required)

 accuracy OK in  97.47 % of wet grid points ( 99.50 % required)

  ** WARNING : Differences in wave height at the boundary
 Relative difference between input and computation >=   0.10
                         Hs[m]      Hs[m]      Hs[-]
     ix    iy  index   (input) (computed) (relative)
  --------------------------------------------------
     4    25    101       0.07       0.08       0.17
 
 Time of computation ->  20241201.120000      in sec:      43200.
 **  Heading lines  **
 -> 20241201.120000                                                                 
 accuracy OK in  86.50 % of wet grid points ( 99.50 % required)

 accuracy OK in  98.73 % of wet grid points ( 99.50 % required)

 accuracy OK in  98.73 % of wet grid points ( 99.50 % required)

 accuracy OK in  98.73 % of wet grid points ( 99.50 % required)

 accuracy OK in  99.16 % of wet grid points ( 99.50 % required)

  ** WARNING : Differences in wave height at the boundary
 Relative difference between input and computation >=   0.10
                         Hs[m]      Hs[m]      Hs[-]
     ix    iy  index   (input) (computed) (relative)
  --------------------------------------------------
     4    25    101       0.07       0.08       0.17
 
 Time of computation ->  20241201.130000      in sec:      46800.
 **  Heading lines  **
 -> 20241201.130000                                                                 
 accuracy OK in  86.08 % of wet grid points ( 99.50 % required)

 accuracy OK in  98.73 % of wet grid points ( 99.50 % required)

 accuracy OK in  98.73 % of wet grid points ( 99.50 % required)

 accuracy OK in  98.73 % of wet grid points ( 99.50 % required)

 accuracy OK in  99.16 % of wet grid points ( 99.50 % required)

  ** WARNING : Differences in wave height at the boundary
 Relative difference between input and computation >=   0.10
                         Hs[m]      Hs[m]      Hs[-]
     ix    iy  index   (input) (computed) (relative)
  --------------------------------------------------
     4    25    101       0.07       0.08       0.17
 
 Time of computation ->  20241201.140000      in sec:      50400.
 **  Heading lines  **
 -> 20241201.140000                                                                 
 accuracy OK in  34.18 % of wet grid points ( 99.50 % required)

 accuracy OK in  70.04 % of wet grid points ( 99.50 % required)

 accuracy OK in  94.09 % of wet grid points ( 99.50 % required)

 accuracy OK in  98.73 % of wet grid points ( 99.50 % required)

 accuracy OK in  98.73 % of wet grid points ( 99.50 % required)

  ** WARNING : Differences in wave height at the boundary
 Relative difference between input and computation >=   0.10
                         Hs[m]      Hs[m]      Hs[-]
     ix    iy  index   (input) (computed) (relative)
  --------------------------------------------------
     4    25    101       0.07       0.08       0.19
 
 Time of computation ->  20241201.150000      in sec:      54000.
 **  Heading lines  **
 -> 20241201.150000                                                                 
 accuracy OK in  76.37 % of wet grid points ( 99.50 % required)

 accuracy OK in  98.31 % of wet grid points ( 99.50 % required)

 accuracy OK in  98.73 % of wet grid points ( 99.50 % required)

 accuracy OK in  98.73 % of wet grid points ( 99.50 % required)

 accuracy OK in  98.73 % of wet grid points ( 99.50 % required)

  ** WARNING : Differences in wave height at the boundary
 Relative difference between input and computation >=   0.10
                         Hs[m]      Hs[m]      Hs[-]
     ix    iy  index   (input) (computed) (relative)
  --------------------------------------------------
     3    25     76       0.09       0.10       0.10
     4    25    101       0.07       0.08       0.20
 
 Time of computation ->  20241201.160000      in sec:      57600.
 **  Heading lines  **
 -> 20241201.160000                                                                 
 accuracy OK in  39.66 % of wet grid points ( 99.50 % required)

 accuracy OK in  67.93 % of wet grid points ( 99.50 % required)

 accuracy OK in  80.59 % of wet grid points ( 99.50 % required)

 accuracy OK in  90.30 % of wet grid points ( 99.50 % required)

 accuracy OK in  96.62 % of wet grid points ( 99.50 % required)

  ** WARNING : Differences in wave height at the boundary
 Relative difference between input and computation >=   0.10
                         Hs[m]      Hs[m]      Hs[-]
     ix    iy  index   (input) (computed) (relative)
  --------------------------------------------------
     2    25     51       0.09       0.10       0.11
     3    25     76       0.09       0.10       0.11
     4    25    101       0.07       0.08       0.22
 
 Time of computation ->  20241201.170000      in sec:      61200.
 **  Heading lines  **
 -> 20241201.170000                                                                 
 accuracy OK in   5.49 % of wet grid points ( 99.50 % required)

 accuracy OK in  12.24 % of wet grid points ( 99.50 % required)

 accuracy OK in  21.10 % of wet grid points ( 99.50 % required)

 accuracy OK in  32.49 % of wet grid points ( 99.50 % required)

 accuracy OK in  41.35 % of wet grid points ( 99.50 % required)

  ** WARNING : Differences in wave height at the boundary
 Relative difference between input and computation >=   0.10
                         Hs[m]      Hs[m]      Hs[-]
     ix    iy  index   (input) (computed) (relative)
  --------------------------------------------------
     2    25     51       0.09       0.11       0.13
     3    25     76       0.09       0.11       0.14
     4    25    101       0.07       0.08       0.28
 
 Time of computation ->  20241201.180000      in sec:      64800.
 **  Heading lines  **
 -> 20241201.180000                                                                 
 accuracy OK in  13.50 % of wet grid points ( 99.50 % required)

 accuracy OK in  26.16 % of wet grid points ( 99.50 % required)

 accuracy OK in  34.18 % of wet grid points ( 99.50 % required)

 accuracy OK in  38.40 % of wet grid points ( 99.50 % required)

 accuracy OK in  42.62 % of wet grid points ( 99.50 % required)

  ** WARNING : Differences in wave height at the boundary
 Relative difference between input and computation >=   0.10
                         Hs[m]      Hs[m]      Hs[-]
     ix    iy  index   (input) (computed) (relative)
  --------------------------------------------------
     2    25     51       0.09       0.11       0.15
     3    25     76       0.09       0.11       0.17
     4    25    101       0.07       0.09       0.32
 
 Time of computation ->  20241201.190000      in sec:      68400.
 **  Heading lines  **
 -> 20241201.190000                                                                 
 accuracy OK in  23.63 % of wet grid points ( 99.50 % required)

 accuracy OK in  30.38 % of wet grid points ( 99.50 % required)

 accuracy OK in  33.76 % of wet grid points ( 99.50 % required)

 accuracy OK in  37.55 % of wet grid points ( 99.50 % required)

 accuracy OK in  39.66 % of wet grid points ( 99.50 % required)

  ** WARNING : Differences in wave height at the boundary
 Relative difference between input and computation >=   0.10
                         Hs[m]      Hs[m]      Hs[-]
     ix    iy  index   (input) (computed) (relative)
  --------------------------------------------------
     2    25     51       0.09       0.11       0.19
     3    25     76       0.09       0.11       0.20
     4    25    101       0.07       0.09       0.39
 
 Time of computation ->  20241201.200000      in sec:      72000.
 **  Heading lines  **
 -> 20241201.200000                                                                 
 accuracy OK in  37.13 % of wet grid points ( 99.50 % required)

 accuracy OK in  39.24 % of wet grid points ( 99.50 % required)

 accuracy OK in  44.30 % of wet grid points ( 99.50 % required)

 accuracy OK in  48.10 % of wet grid points ( 99.50 % required)

 accuracy OK in  54.85 % of wet grid points ( 99.50 % required)

  ** WARNING : Differences in wave height at the boundary
 Relative difference between input and computation >=   0.10
                         Hs[m]      Hs[m]      Hs[-]
     ix    iy  index   (input) (computed) (relative)
  --------------------------------------------------
     1    25     26       0.10       0.11       0.10
     2    25     51       0.09       0.11       0.20
     3    25     76       0.09       0.11       0.22
     4    25    101       0.07       0.09       0.42
 
 Time of computation ->  20241201.210000      in sec:      75600.
 **  Heading lines  **
 -> 20241201.210000                                                                 
 accuracy OK in  89.03 % of wet grid points ( 99.50 % required)

 accuracy OK in  89.45 % of wet grid points ( 99.50 % required)

 accuracy OK in  90.30 % of wet grid points ( 99.50 % required)

 accuracy OK in  92.41 % of wet grid points ( 99.50 % required)

 accuracy OK in  93.25 % of wet grid points ( 99.50 % required)

  ** WARNING : Differences in wave height at the boundary
 Relative difference between input and computation >=   0.10
                         Hs[m]      Hs[m]      Hs[-]
     ix    iy  index   (input) (computed) (relative)
  --------------------------------------------------
     1    25     26       0.10       0.11       0.11
     2    25     51       0.09       0.11       0.21
     3    25     76       0.09       0.11       0.22
     4    25    101       0.07       0.09       0.43
     1    24     25       0.10       0.11       0.11
     1    23     24       0.10       0.11       0.10
     1    22     23       0.10       0.11       0.10
 
 Time of computation ->  20241201.220000      in sec:      79200.
 **  Heading lines  **
 -> 20241201.220000                                                                 
 accuracy OK in  87.76 % of wet grid points ( 99.50 % required)

 accuracy OK in  89.87 % of wet grid points ( 99.50 % required)

 accuracy OK in  90.30 % of wet grid points ( 99.50 % required)

 accuracy OK in  91.98 % of wet grid points ( 99.50 % required)

 accuracy OK in  93.25 % of wet grid points ( 99.50 % required)

  ** WARNING : Differences in wave height at the boundary
 Relative difference between input and computation >=   0.10
                         Hs[m]      Hs[m]      Hs[-]
     ix    iy  index   (input) (computed) (relative)
  --------------------------------------------------
     1    25     26       0.10       0.11       0.11
     2    25     51       0.09       0.11       0.21
     3    25     76       0.09       0.11       0.23
     4    25    101       0.07       0.09       0.44
     1    24     25       0.10       0.11       0.11
     1    23     24       0.10       0.11       0.11
     1    22     23       0.10       0.11       0.11
     1    21     22       0.10       0.11       0.11
     1    20     21       0.10       0.11       0.10
 
 Time of computation ->  20241201.230000      in sec:      82800.
 **  Heading lines  **
 -> 20241201.230000                                                                 
 accuracy OK in  89.03 % of wet grid points ( 99.50 % required)

 accuracy OK in  89.87 % of wet grid points ( 99.50 % required)

 accuracy OK in  90.30 % of wet grid points ( 99.50 % required)

 accuracy OK in  91.14 % of wet grid points ( 99.50 % required)

 accuracy OK in  92.83 % of wet grid points ( 99.50 % required)

  ** WARNING : Differences in wave height at the boundary
 Relative difference between input and computation >=   0.10
                         Hs[m]      Hs[m]      Hs[-]
     ix    iy  index   (input) (computed) (relative)
  --------------------------------------------------
     1    25     26       0.10       0.11       0.12
     2    25     51       0.09       0.11       0.22
     3    25     76       0.09       0.11       0.24
     4    25    101       0.07       0.09       0.45
     1    24     25       0.10       0.11       0.12
     1    23     24       0.10       0.11       0.12
     1    22     23       0.10       0.11       0.11
     1    21     22       0.10       0.11       0.11
     1    20     21       0.10       0.11       0.11
     1    19     20       0.10       0.11       0.10
     1    18     19       0.10       0.11       0.10
 
 Time of computation ->  20241202.000000      in sec:      86400.
 **  Heading lines  **
 -> 20241202.000000                                                                 
 accuracy OK in  84.39 % of wet grid points ( 99.50 % required)

 accuracy OK in  86.50 % of wet grid points ( 99.50 % required)

 accuracy OK in  89.87 % of wet grid points ( 99.50 % required)

 accuracy OK in  91.98 % of wet grid points ( 99.50 % required)

 accuracy OK in  93.25 % of wet grid points ( 99.50 % required)

  ** WARNING : Differences in wave height at the boundary
 Relative difference between input and computation >=   0.10
                         Hs[m]      Hs[m]      Hs[-]
     ix    iy  index   (input) (computed) (relative)
  --------------------------------------------------
     1    25     26       0.10       0.11       0.13
     2    25     51       0.09       0.11       0.22
     3    25     76       0.09       0.11       0.24
     4    25    101       0.07       0.09       0.45
     1    24     25       0.10       0.11       0.13
     1    23     24       0.10       0.11       0.13
     1    22     23       0.10       0.11       0.12
     1    21     22       0.10       0.11       0.12
     1    20     21       0.10       0.11       0.12
     1    19     20       0.10       0.11       0.11
     1    18     19       0.10       0.11       0.11
     1    17     18       0.10       0.11       0.10
 
 Time of computation ->  20241202.010000      in sec:      90000.
 **  Heading lines  **
 -> 20241202.010000                                                                 
 accuracy OK in  72.57 % of wet grid points ( 99.50 % required)

 accuracy OK in  80.17 % of wet grid points ( 99.50 % required)

 accuracy OK in  88.61 % of wet grid points ( 99.50 % required)

 accuracy OK in  90.30 % of wet grid points ( 99.50 % required)

 accuracy OK in  92.83 % of wet grid points ( 99.50 % required)

  ** WARNING : Differences in wave height at the boundary
 Relative difference between input and computation >=   0.10
                         Hs[m]      Hs[m]      Hs[-]
     ix    iy  index   (input) (computed) (relative)
  --------------------------------------------------
     1    25     26       0.10       0.11       0.13
     2    25     51       0.09       0.11       0.22
     3    25     76       0.09       0.11       0.24
     4    25    101       0.07       0.09       0.44
     1    24     25       0.10       0.11       0.14
     1    23     24       0.10       0.11       0.13
     1    22     23       0.10       0.11       0.13
     1    21     22       0.10       0.11       0.13
     1    20     21       0.10       0.11       0.12
     1    19     20       0.10       0.11       0.12
     1    18     19       0.10       0.11       0.11
     1    17     18       0.10       0.12       0.11
     1    16     17       0.10       0.12       0.10
 
 Time of computation ->  20241202.020000      in sec:      93600.
 **  Heading lines  **
 -> 20241202.020000                                                                 
 accuracy OK in  30.80 % of wet grid points ( 99.50 % required)

 accuracy OK in  35.02 % of wet grid points ( 99.50 % required)

 accuracy OK in  56.96 % of wet grid points ( 99.50 % required)

 accuracy OK in  76.37 % of wet grid points ( 99.50 % required)

 accuracy OK in  84.81 % of wet grid points ( 99.50 % required)

  ** WARNING : Differences in wave height at the boundary
 Relative difference between input and computation >=   0.10
                         Hs[m]      Hs[m]      Hs[-]
     ix    iy  index   (input) (computed) (relative)
  --------------------------------------------------
     1    25     26       0.10       0.11       0.13
     2    25     51       0.09       0.11       0.22
     3    25     76       0.09       0.11       0.23
     4    25    101       0.07       0.09       0.42
     1    24     25       0.10       0.11       0.13
     1    23     24       0.10       0.11       0.13
     1    22     23       0.10       0.11       0.13
     1    21     22       0.10       0.11       0.13
     1    20     21       0.10       0.11       0.12
     1    19     20       0.10       0.11       0.12
     1    18     19       0.10       0.11       0.11
     1    17     18       0.10       0.12       0.11
     1    16     17       0.10       0.12       0.10
 
 Time of computation ->  20241202.030000      in sec:      97200.
 **  Heading lines  **
 -> 20241202.030000                                                                 
 accuracy OK in   7.17 % of wet grid points ( 99.50 % required)

 accuracy OK in  13.92 % of wet grid points ( 99.50 % required)

 accuracy OK in  24.05 % of wet grid points ( 99.50 % required)

 accuracy OK in  34.60 % of wet grid points ( 99.50 % required)

 accuracy OK in  46.84 % of wet grid points ( 99.50 % required)

  ** WARNING : Differences in wave height at the boundary
 Relative difference between input and computation >=   0.10
                         Hs[m]      Hs[m]      Hs[-]
     ix    iy  index   (input) (computed) (relative)
  --------------------------------------------------
     1    25     26       0.10       0.11       0.12
     2    25     51       0.09       0.11       0.20
     3    25     76       0.09       0.11       0.21
     4    25    101       0.07       0.09       0.39
     1    24     25       0.10       0.11       0.12
     1    23     24       0.10       0.11       0.12
     1    22     23       0.10       0.11       0.12
     1    21     22       0.10       0.11       0.12
     1    20     21       0.10       0.11       0.11
     1    19     20       0.10       0.11       0.11
     1    18     19       0.10       0.11       0.10
     1    17     18       0.10       0.11       0.10
 
 Time of computation ->  20241202.040000      in sec:     100800.
 **  Heading lines  **
 -> 20241202.040000                                                                 
 accuracy OK in   8.86 % of wet grid points ( 99.50 % required)

 accuracy OK in  14.35 % of wet grid points ( 99.50 % required)

 accuracy OK in  21.94 % of wet grid points ( 99.50 % required)

 accuracy OK in  30.80 % of wet grid points ( 99.50 % required)

 accuracy OK in  38.40 % of wet grid points ( 99.50 % required)

  ** WARNING : Differences in wave height at the boundary
 Relative difference between input and computation >=   0.10
                         Hs[m]      Hs[m]      Hs[-]
     ix    iy  index   (input) (computed) (relative)
  --------------------------------------------------
     1    25     26       0.10       0.11       0.11
     2    25     51       0.09       0.11       0.18
     3    25     76       0.09       0.11       0.19
     4    25    101       0.07       0.09       0.35
     1    24     25       0.10       0.11       0.11
     1    23     24       0.10       0.11       0.11
     1    22     23       0.10       0.11       0.11
     1    21     22       0.10       0.11       0.10
 
 Time of computation ->  20241202.050000      in sec:     104400.
 **  Heading lines  **
 -> 20241202.050000                                                                 
 accuracy OK in   6.75 % of wet grid points ( 99.50 % required)

 accuracy OK in  12.24 % of wet grid points ( 99.50 % required)

 accuracy OK in  14.77 % of wet grid points ( 99.50 % required)

 accuracy OK in  19.83 % of wet grid points ( 99.50 % required)

 accuracy OK in  23.21 % of wet grid points ( 99.50 % required)

  ** WARNING : Differences in wave height at the boundary
 Relative difference between input and computation >=   0.10
                         Hs[m]      Hs[m]      Hs[-]
     ix    iy  index   (input) (computed) (relative)
  --------------------------------------------------
     2    25     51       0.09       0.11       0.15
     3    25     76       0.09       0.11       0.16
     4    25    101       0.07       0.08       0.30
 
 Time of computation ->  20241202.060000      in sec:     108000.
 **  Heading lines  **
 -> 20241202.060000                                                                 
 accuracy OK in  10.97 % of wet grid points ( 99.50 % required)

 accuracy OK in  13.92 % of wet grid points ( 99.50 % required)

 accuracy OK in  19.41 % of wet grid points ( 99.50 % required)

 accuracy OK in  24.89 % of wet grid points ( 99.50 % required)

 accuracy OK in  26.58 % of wet grid points ( 99.50 % required)

  ** WARNING : Differences in wave height at the boundary
 Relative difference between input and computation >=   0.10
                         Hs[m]      Hs[m]      Hs[-]
     ix    iy  index   (input) (computed) (relative)
  --------------------------------------------------
     2    25     51       0.09       0.11       0.12
     3    25     76       0.09       0.10       0.13
     4    25    101       0.07       0.08       0.26
 
 Time of computation ->  20241202.070000      in sec:     111600.
 **  Heading lines  **
 -> 20241202.070000                                                                 
 accuracy OK in  10.97 % of wet grid points ( 99.50 % required)

 accuracy OK in  16.46 % of wet grid points ( 99.50 % required)

 accuracy OK in  24.89 % of wet grid points ( 99.50 % required)

 accuracy OK in  25.74 % of wet grid points ( 99.50 % required)

 accuracy OK in  27.00 % of wet grid points ( 99.50 % required)

  ** WARNING : Differences in wave height at the boundary
 Relative difference between input and computation >=   0.10
                         Hs[m]      Hs[m]      Hs[-]
     ix    iy  index   (input) (computed) (relative)
  --------------------------------------------------
     2    25     51       0.09       0.10       0.10
     3    25     76       0.09       0.10       0.11
     4    25    101       0.07       0.08       0.22
 
 Time of computation ->  20241202.080000      in sec:     115200.
 **  Heading lines  **
 -> 20241202.080000                                                                 
 accuracy OK in  12.24 % of wet grid points ( 99.50 % required)

 accuracy OK in  22.78 % of wet grid points ( 99.50 % required)

 accuracy OK in  27.43 % of wet grid points ( 99.50 % required)

 accuracy OK in  29.11 % of wet grid points ( 99.50 % required)

 accuracy OK in  29.11 % of wet grid points ( 99.50 % required)

  ** WARNING : Differences in wave height at the boundary
 Relative difference between input and computation >=   0.10
                         Hs[m]      Hs[m]      Hs[-]
     ix    iy  index   (input) (computed) (relative)
  --------------------------------------------------
     4    25    101       0.07       0.08       0.19
 
 Time of computation ->  20241202.090000      in sec:     118800.
 **  Heading lines  **
 -> 20241202.090000                                                                 
 accuracy OK in  21.94 % of wet grid points ( 99.50 % required)

 accuracy OK in  34.18 % of wet grid points ( 99.50 % required)

 accuracy OK in  34.18 % of wet grid points ( 99.50 % required)

 accuracy OK in  34.60 % of wet grid points ( 99.50 % required)

 accuracy OK in  37.55 % of wet grid points ( 99.50 % required)

  ** WARNING : Differences in wave height at the boundary
 Relative difference between input and computation >=   0.10
                         Hs[m]      Hs[m]      Hs[-]
     ix    iy  index   (input) (computed) (relative)
  --------------------------------------------------
     4    25    101       0.07       0.08       0.17
 
 Time of computation ->  20241202.100000      in sec:     122400.
 **  Heading lines  **
 -> 20241202.100000                                                                 
 accuracy OK in  63.71 % of wet grid points ( 99.50 % required)

 accuracy OK in  97.47 % of wet grid points ( 99.50 % required)

 accuracy OK in  98.73 % of wet grid points ( 99.50 % required)

 accuracy OK in  98.73 % of wet grid points ( 99.50 % required)

 accuracy OK in  98.73 % of wet grid points ( 99.50 % required)

  ** WARNING : Differences in wave height at the boundary
 Relative difference between input and computation >=   0.10
                         Hs[m]      Hs[m]      Hs[-]
     ix    iy  index   (input) (computed) (relative)
  --------------------------------------------------
     4    25    101       0.07       0.08       0.17
 
 Time of computation ->  20241202.110000      in sec:     126000.
 **  Heading lines  **
 -> 20241202.110000                                                                 
 accuracy OK in  67.09 % of wet grid points ( 99.50 % required)

 accuracy OK in  83.97 % of wet grid points ( 99.50 % required)

 accuracy OK in  92.83 % of wet grid points ( 99.50 % required)

 accuracy OK in  93.67 % of wet grid points ( 99.50 % required)

 accuracy OK in  93.25 % of wet grid points ( 99.50 % required)

  ** WARNING : Differences in wave height at the boundary
 Relative difference between input and computation >=   0.10
                         Hs[m]      Hs[m]      Hs[-]
     ix    iy  index   (input) (computed) (relative)
  --------------------------------------------------
     4    25    101       0.07       0.08       0.18
 
 Time of computation ->  20241202.120000      in sec:     129600.
 **  Heading lines  **
 -> 20241202.120000                                                                 
 accuracy OK in   8.02 % of wet grid points ( 99.50 % required)

 accuracy OK in  16.46 % of wet grid points ( 99.50 % required)

 accuracy OK in  24.05 % of wet grid points ( 99.50 % required)

 accuracy OK in  30.38 % of wet grid points ( 99.50 % required)

 accuracy OK in  33.33 % of wet grid points ( 99.50 % required)

  ** WARNING : Differences in wave height at the boundary
 Relative difference between input and computation >=   0.10
                         Hs[m]      Hs[m]      Hs[-]
     ix    iy  index   (input) (computed) (relative)
  --------------------------------------------------
     3    25     76       0.09       0.10       0.10
     4    25    101       0.07       0.08       0.20
 
 Time of computation ->  20241202.130000      in sec:     133200.
 **  Heading lines  **
 -> 20241202.130000                                                                 
 accuracy OK in   7.59 % of wet grid points ( 99.50 % required)

 accuracy OK in  19.41 % of wet grid points ( 99.50 % required)

 accuracy OK in  28.69 % of wet grid points ( 99.50 % required)

 accuracy OK in  35.02 % of wet grid points ( 99.50 % required)

 accuracy OK in  43.04 % of wet grid points ( 99.50 % required)

  ** WARNING : Differences in wave height at the boundary
 Relative difference between input and computation >=   0.10
                         Hs[m]      Hs[m]      Hs[-]
     ix    iy  index   (input) (computed) (relative)
  --------------------------------------------------
     2    25     51       0.09       0.10       0.11
     3    25     76       0.09       0.10       0.12
     4    25    101       0.07       0.08       0.23
 
 Time of computation ->  20241202.140000      in sec:     136800.
 **  Heading lines  **
 -> 20241202.140000                                                                 
 accuracy OK in  15.19 % of wet grid points ( 99.50 % required)

 accuracy OK in  20.25 % of wet grid points ( 99.50 % required)

 accuracy OK in  26.58 % of wet grid points ( 99.50 % required)

 accuracy OK in  33.76 % of wet grid points ( 99.50 % required)

 accuracy OK in  47.26 % of wet grid points ( 99.50 % required)

  ** WARNING : Differences in wave height at the boundary
 Relative difference between input and computation >=   0.10
                         Hs[m]      Hs[m]      Hs[-]
     ix    iy  index   (input) (computed) (relative)
  --------------------------------------------------
     2    25     51       0.09       0.11       0.13
     3    25     76       0.09       0.10       0.13
     4    25    101       0.07       0.08       0.26
 
 Time of computation ->  20241202.150000      in sec:     140400.
 **  Heading lines  **
 -> 20241202.150000                                                                 
 accuracy OK in  14.77 % of wet grid points ( 99.50 % required)

 accuracy OK in  18.57 % of wet grid points ( 99.50 % required)

 accuracy OK in  24.47 % of wet grid points ( 99.50 % required)

 accuracy OK in  30.38 % of wet grid points ( 99.50 % required)

 accuracy OK in  35.86 % of wet grid points ( 99.50 % required)

  ** WARNING : Differences in wave height at the boundary
 Relative difference between input and computation >=   0.10
                         Hs[m]      Hs[m]      Hs[-]
     ix    iy  index   (input) (computed) (relative)
  --------------------------------------------------
     2    25     51       0.09       0.11       0.14
     3    25     76       0.09       0.11       0.15
     4    25    101       0.07       0.08       0.29
 
 Time of computation ->  20241202.160000      in sec:     144000.
 **  Heading lines  **
 -> 20241202.160000                                                                 
 accuracy OK in  20.68 % of wet grid points ( 99.50 % required)

 accuracy OK in  27.00 % of wet grid points ( 99.50 % required)

 accuracy OK in  33.76 % of wet grid points ( 99.50 % required)

 accuracy OK in  39.66 % of wet grid points ( 99.50 % required)

 accuracy OK in  54.01 % of wet grid points ( 99.50 % required)

  ** WARNING : Differences in wave height at the boundary
 Relative difference between input and computation >=   0.10
                         Hs[m]      Hs[m]      Hs[-]
     ix    iy  index   (input) (computed) (relative)
  --------------------------------------------------
     2    25     51       0.09       0.11       0.16
     3    25     76       0.09       0.11       0.17
     4    25    101       0.07       0.09       0.32
 
 Time of computation ->  20241202.170000      in sec:     147600.
 **  Heading lines  **
 -> 20241202.170000                                                                 
 accuracy OK in   5.91 % of wet grid points ( 99.50 % required)

 accuracy OK in   7.59 % of wet grid points ( 99.50 % required)

 accuracy OK in   9.70 % of wet grid points ( 99.50 % required)

 accuracy OK in  14.35 % of wet grid points ( 99.50 % required)

 accuracy OK in  19.41 % of wet grid points ( 99.50 % required)

  ** WARNING : Differences in wave height at the boundary
 Relative difference between input and computation >=   0.10
                         Hs[m]      Hs[m]      Hs[-]
     ix    iy  index   (input) (computed) (relative)
  --------------------------------------------------
     2    25     51       0.09       0.11       0.18
     3    25     76       0.09       0.11       0.20
     4    25    101       0.07       0.09       0.38
 
 Time of computation ->  20241202.180000      in sec:     151200.
 **  Heading lines  **
 -> 20241202.180000                                                                 
 accuracy OK in  23.21 % of wet grid points ( 99.50 % required)

 accuracy OK in  40.08 % of wet grid points ( 99.50 % required)

 accuracy OK in  46.41 % of wet grid points ( 99.50 % required)

 accuracy OK in  65.40 % of wet grid points ( 99.50 % required)

 accuracy OK in  73.00 % of wet grid points ( 99.50 % required)

  ** WARNING : Differences in wave height at the boundary
 Relative difference between input and computation >=   0.10
                         Hs[m]      Hs[m]      Hs[-]
     ix    iy  index   (input) (computed) (relative)
  --------------------------------------------------
     1    25     26       0.10       0.11       0.10
     2    25     51       0.09       0.11       0.20
     3    25     76       0.09       0.11       0.22
     4    25    101       0.07       0.09       0.41
 
 Time of computation ->  20241202.190000      in sec:     154800.
 **  Heading lines  **
 -> 20241202.190000                                                                 
 accuracy OK in   5.91 % of wet grid points ( 99.50 % required)

 accuracy OK in   6.75 % of wet grid points ( 99.50 % required)

 accuracy OK in   8.02 % of wet grid points ( 99.50 % required)

 accuracy OK in  11.39 % of wet grid points ( 99.50 % required)

 accuracy OK in  13.92 % of wet grid points ( 99.50 % required)

  ** WARNING : Differences in wave height at the boundary
 Relative difference between input and computation >=   0.10
                         Hs[m]      Hs[m]      Hs[-]
     ix    iy  index   (input) (computed) (relative)
  --------------------------------------------------
     1    25     26       0.10       0.11       0.12
     2    25     51       0.09       0.12       0.23
     3    25     76       0.09       0.12       0.25
     4    25    101       0.07       0.10       0.48
     1    24     25       0.10       0.11       0.12
     1    23     24       0.10       0.11       0.12
     1    22     23       0.10       0.11       0.11
     1    21     22       0.10       0.11       0.11
     1    20     21       0.10       0.11       0.11
     1    19     20       0.10       0.11       0.10
 
 Time of computation ->  20241202.200000      in sec:     158400.
 **  Heading lines  **
 -> 20241202.200000                                                                 
 accuracy OK in  15.19 % of wet grid points ( 99.50 % required)

 accuracy OK in  21.52 % of wet grid points ( 99.50 % required)

 accuracy OK in  30.38 % of wet grid points ( 99.50 % required)

 accuracy OK in  44.30 % of wet grid points ( 99.50 % required)

 accuracy OK in  66.67 % of wet grid points ( 99.50 % required)

  ** WARNING : Differences in wave height at the boundary
 Relative difference between input and computation >=   0.10
                         Hs[m]      Hs[m]      Hs[-]
     ix    iy  index   (input) (computed) (relative)
  --------------------------------------------------
     1    25     26       0.10       0.11       0.13
     2    25     51       0.09       0.12       0.25
     3    25     76       0.09       0.12       0.27
     4    25    101       0.07       0.10       0.52
     1    24     25       0.10       0.11       0.13
     1    23     24       0.10       0.11       0.13
     1    22     23       0.10       0.11       0.12
     1    21     22       0.10       0.11       0.12
     1    20     21       0.10       0.11       0.12
     1    19     20       0.10       0.11       0.11
     1    18     19       0.10       0.11       0.11
     1    17     18       0.10       0.11       0.10
 
 Time of computation ->  20241202.210000      in sec:     162000.
 **  Heading lines  **
 -> 20241202.210000                                                                 
 accuracy OK in  30.80 % of wet grid points ( 99.50 % required)

 accuracy OK in  37.55 % of wet grid points ( 99.50 % required)

 accuracy OK in  45.15 % of wet grid points ( 99.50 % required)

 accuracy OK in  59.49 % of wet grid points ( 99.50 % required)

 accuracy OK in  67.51 % of wet grid points ( 99.50 % required)

  ** WARNING : Differences in wave height at the boundary
 Relative difference between input and computation >=   0.10
                         Hs[m]      Hs[m]      Hs[-]
     ix    iy  index   (input) (computed) (relative)
  --------------------------------------------------
     1    25     26       0.10       0.11       0.15
     2    25     51       0.09       0.12       0.27
     3    25     76       0.09       0.12       0.30
     4    25    101       0.07       0.10       0.56
     1    24     25       0.10       0.11       0.15
     1    23     24       0.10       0.11       0.15
     1    22     23       0.10       0.11       0.14
     1    21     22       0.10       0.11       0.14
     1    20     21       0.10       0.11       0.14
     1    19     20       0.10       0.12       0.13
     1    18     19       0.10       0.12       0.13
     1    17     18       0.10       0.12       0.12
     1    16     17       0.10       0.12       0.12
     1    15     16       0.11       0.12       0.11
     1    14     15       0.11       0.12       0.10
 
 Time of computation ->  20241202.220000      in sec:     165600.
 **  Heading lines  **
 -> 20241202.220000                                                                 
 accuracy OK in  89.03 % of wet grid points ( 99.50 % required)

 accuracy OK in  89.87 % of wet grid points ( 99.50 % required)

 accuracy OK in  90.30 % of wet grid points ( 99.50 % required)

 accuracy OK in  90.72 % of wet grid points ( 99.50 % required)

 accuracy OK in  90.72 % of wet grid points ( 99.50 % required)

  ** WARNING : Differences in wave height at the boundary
 Relative difference between input and computation >=   0.10
                         Hs[m]      Hs[m]      Hs[-]
     ix    iy  index   (input) (computed) (relative)
  --------------------------------------------------
     1    25     26       0.10       0.11       0.16
     2    25     51       0.09       0.12       0.28
     3    25     76       0.09       0.12       0.30
     4    25    101       0.07       0.10       0.56
     1    24     25       0.10       0.11       0.16
     1    23     24       0.10       0.11       0.15
     1    22     23       0.10       0.11       0.15
     1    21     22       0.10       0.11       0.15
     1    20     21       0.10       0.12       0.14
     1    19     20       0.10       0.12       0.14
     1    18     19       0.10       0.12       0.13
     1    17     18       0.10       0.12       0.13
     1    16     17       0.10       0.12       0.12
     1    15     16       0.11       0.12       0.12
     1    14     15       0.11       0.12       0.11
     1    13     14       0.11       0.12       0.10
 
 Time of computation ->  20241202.230000      in sec:     169200.
 **  Heading lines  **
 -> 20241202.230000                                                                 
 accuracy OK in  84.39 % of wet grid points ( 99.50 % required)

 accuracy OK in  85.23 % of wet grid points ( 99.50 % required)

 accuracy OK in  86.50 % of wet grid points ( 99.50 % required)

 accuracy OK in  87.34 % of wet grid points ( 99.50 % required)

 accuracy OK in  89.87 % of wet grid points ( 99.50 % required)

  ** WARNING : Differences in wave height at the boundary
 Relative difference between input and computation >=   0.10
                         Hs[m]      Hs[m]      Hs[-]
     ix    iy  index   (input) (computed) (relative)
  --------------------------------------------------
     1    25     26       0.10       0.11       0.16
     2    25     51       0.09       0.12       0.27
     3    25     76       0.09       0.12       0.29
     4    25    101       0.07       0.10       0.54
     1    24     25       0.10       0.11       0.16
     1    23     24       0.10       0.11       0.16
     1    22     23       0.10       0.11       0.15
     1    21     22       0.10       0.11       0.15
     1    20     21       0.10       0.12       0.15
     1    19     20       0.10       0.12       0.14
     1    18     19       0.10       0.12       0.14
     1    17     18       0.10       0.12       0.13
     1    16     17       0.10       0.12       0.13
     1    15     16       0.11       0.12       0.12
     1    14     15       0.11       0.12       0.12
     1    13     14       0.11       0.12       0.11
     1    12     13       0.11       0.12       0.10
 
 Time of computation ->  20241203.000000      in sec:     172800.
 **  Heading lines  **
 -> 20241203.000000                                                                 
 accuracy OK in  83.54 % of wet grid points ( 99.50 % required)

 accuracy OK in  86.08 % of wet grid points ( 99.50 % required)

 accuracy OK in  89.45 % of wet grid points ( 99.50 % required)

 accuracy OK in  90.72 % of wet grid points ( 99.50 % required)

 accuracy OK in  90.72 % of wet grid points ( 99.50 % required)

  ** WARNING : Differences in wave height at the boundary
 Relative difference between input and computation >=   0.10
                         Hs[m]      Hs[m]      Hs[-]
     ix    iy  index   (input) (computed) (relative)
  --------------------------------------------------
     1    25     26       0.10       0.11       0.16
     2    25     51       0.09       0.12       0.26
     3    25     76       0.09       0.12       0.29
     4    25    101       0.07       0.10       0.53
     1    24     25       0.10       0.11       0.16
     1    23     24       0.10       0.11       0.16
     1    22     23       0.10       0.11       0.16
     1    21     22       0.10       0.12       0.15
     1    20     21       0.10       0.12       0.15
     1    19     20       0.10       0.12       0.15
     1    18     19       0.10       0.12       0.14
     1    17     18       0.10       0.12       0.14
     1    16     17       0.10       0.12       0.13
     1    15     16       0.11       0.12       0.13
     1    14     15       0.11       0.12       0.12
     1    13     14       0.11       0.12       0.12
     1    12     13       0.11       0.12       0.11
 
 Time of computation ->  20241203.010000      in sec:     176400.
 **  Heading lines  **
 -> 20241203.010000                                                                 
 accuracy OK in  10.13 % of wet grid points ( 99.50 % required)

 accuracy OK in  13.50 % of wet grid points ( 99.50 % required)

 accuracy OK in  32.07 % of wet grid points ( 99.50 % required)

 accuracy OK in  55.27 % of wet grid points ( 99.50 % required)

 accuracy OK in  70.04 % of wet grid points ( 99.50 % required)

  ** WARNING : Differences in wave height at the boundary
 Relative difference between input and computation >=   0.10
                         Hs[m]      Hs[m]      Hs[-]
     ix    iy  index   (input) (computed) (relative)
  --------------------------------------------------
     1    25     26       0.10       0.11       0.15
     2    25     51       0.09       0.12       0.25
     3    25     76       0.09       0.12       0.27
     4    25    101       0.07       0.10       0.50
     1    24     25       0.10       0.11       0.16
     1    23     24       0.10       0.11       0.15
     1    22     23       0.10       0.11       0.15
     1    21     22       0.10       0.11       0.15
     1    20     21       0.10       0.12       0.15
     1    19     20       0.10       0.12       0.14
     1    18     19       0.10       0.12       0.14
     1    17     18       0.10       0.12       0.13
     1    16     17       0.10       0.12       0.13
     1    15     16       0.11       0.12       0.12
     1    14     15       0.11       0.12       0.12
     1    13     14       0.11       0.12       0.11
     1    12     13       0.11       0.12       0.10
 
 Time of computation ->  20241203.020000      in sec:     180000.
 **  Heading lines  **
 -> 20241203.020000                                                                 
 accuracy OK in   5.91 % of wet grid points ( 99.50 % required)

 accuracy OK in  11.81 % of wet grid points ( 99.50 % required)

 accuracy OK in  12.66 % of wet grid points ( 99.50 % required)

 accuracy OK in  16.03 % of wet grid points ( 99.50 % required)

 accuracy OK in  23.21 % of wet grid points ( 99.50 % required)

  ** WARNING : Differences in wave height at the boundary
 Relative difference between input and computation >=   0.10
                         Hs[m]      Hs[m]      Hs[-]
     ix    iy  index   (input) (computed) (relative)
  --------------------------------------------------
     1    25     26       0.10       0.11       0.15
     2    25     51       0.09       0.12       0.23
     3    25     76       0.09       0.12       0.25
     4    25    101       0.07       0.09       0.45
     1    24     25       0.10       0.11       0.15
     1    23     24       0.10       0.11       0.14
     1    22     23       0.10       0.11       0.14
     1    21     22       0.10       0.11       0.14
     1    20     21       0.10       0.11       0.13
     1    19     20       0.10       0.12       0.13
     1    18     19       0.10       0.12       0.13
     1    17     18       0.10       0.12       0.12
     1    16     17       0.10       0.12       0.12
     1    15     16       0.11       0.12       0.11
     1    14     15       0.11       0.12       0.11
     1    13     14       0.11       0.12       0.10
 
 Time of computation ->  20241203.030000      in sec:     183600.
 **  Heading lines  **
 -> 20241203.030000                                                                 
 accuracy OK in  10.13 % of wet grid points ( 99.50 % required)

 accuracy OK in  13.50 % of wet grid points ( 99.50 % required)

 accuracy OK in  23.21 % of wet grid points ( 99.50 % required)

 accuracy OK in  29.54 % of wet grid points ( 99.50 % required)

 accuracy OK in  45.57 % of wet grid points ( 99.50 % required)

  ** WARNING : Differences in wave height at the boundary
 Relative difference between input and computation >=   0.10
                         Hs[m]      Hs[m]      Hs[-]
     ix    iy  index   (input) (computed) (relative)
  --------------------------------------------------
     1    25     26       0.10       0.11       0.13
     2    25     51       0.09       0.11       0.21
     3    25     76       0.09       0.11       0.22
     4    25    101       0.07       0.09       0.41
     1    24     25       0.10       0.11       0.13
     1    23     24       0.10       0.11       0.13
     1    22     23       0.10       0.11       0.13
     1    21     22       0.10       0.11       0.12
     1    20     21       0.10       0.11       0.12
     1    19     20       0.10       0.11       0.12
     1    18     19       0.10       0.11       0.11
     1    17     18       0.10       0.12       0.11
     1    16     17       0.10       0.12       0.10
 
 Time of computation ->  20241203.040000      in sec:     187200.
 **  Heading lines  **
 -> 20241203.040000                                                                 
 accuracy OK in  10.13 % of wet grid points ( 99.50 % required)

 accuracy OK in  13.50 % of wet grid points ( 99.50 % required)

 accuracy OK in  20.25 % of wet grid points ( 99.50 % required)

 accuracy OK in  31.65 % of wet grid points ( 99.50 % required)

 accuracy OK in  31.22 % of wet grid points ( 99.50 % required)

  ** WARNING : Differences in wave height at the boundary
 Relative difference between input and computation >=   0.10
                         Hs[m]      Hs[m]      Hs[-]
     ix    iy  index   (input) (computed) (relative)
  --------------------------------------------------
     1    25     26       0.10       0.11       0.12
     2    25     51       0.09       0.11       0.18
     3    25     76       0.09       0.11       0.19
     4    25    101       0.07       0.09       0.36
     1    24     25       0.10       0.11       0.11
     1    23     24       0.10       0.11       0.11
     1    22     23       0.10       0.11       0.11
     1    21     22       0.10       0.11       0.11
     1    20     21       0.10       0.11       0.10
 
 Time of computation ->  20241203.050000      in sec:     190800.
 **  Heading lines  **
 -> 20241203.050000                                                                 
 accuracy OK in  10.97 % of wet grid points ( 99.50 % required)

 accuracy OK in  14.35 % of wet grid points ( 99.50 % required)

 accuracy OK in  21.10 % of wet grid points ( 99.50 % required)

 accuracy OK in  29.11 % of wet grid points ( 99.50 % required)

 accuracy OK in  31.22 % of wet grid points ( 99.50 % required)

  ** WARNING : Differences in wave height at the boundary
 Relative difference between input and computation >=   0.10
                         Hs[m]      Hs[m]      Hs[-]
     ix    iy  index   (input) (computed) (relative)
  --------------------------------------------------
     1    25     26       0.10       0.11       0.10
     2    25     51       0.09       0.11       0.15
     3    25     76       0.09       0.11       0.17
     4    25    101       0.07       0.09       0.32
 
 Time of computation ->  20241203.060000      in sec:     194400.
 **  Heading lines  **
 -> 20241203.060000                                                                 
 accuracy OK in  27.85 % of wet grid points ( 99.50 % required)

 accuracy OK in  56.54 % of wet grid points ( 99.50 % required)

 accuracy OK in  68.78 % of wet grid points ( 99.50 % required)

 accuracy OK in  63.29 % of wet grid points ( 99.50 % required)

 accuracy OK in  73.00 % of wet grid points ( 99.50 % required)

  ** WARNING : Differences in wave height at the boundary
 Relative difference between input and computation >=   0.10
                         Hs[m]      Hs[m]      Hs[-]
     ix    iy  index   (input) (computed) (relative)
  --------------------------------------------------
     2    25     51       0.09       0.11       0.14
     3    25     76       0.09       0.11       0.15
     4    25    101       0.07       0.08       0.29
 
 Time of computation ->  20241203.070000      in sec:     198000.
 **  Heading lines  **
 -> 20241203.070000                                                                 
 accuracy OK in  57.38 % of wet grid points ( 99.50 % required)

 accuracy OK in  89.03 % of wet grid points ( 99.50 % required)

 accuracy OK in  94.09 % of wet grid points ( 99.50 % required)

 accuracy OK in  92.41 % of wet grid points ( 99.50 % required)

 accuracy OK in  94.51 % of wet grid points ( 99.50 % required)

  ** WARNING : Differences in wave height at the boundary
 Relative difference between input and computation >=   0.10
                         Hs[m]      Hs[m]      Hs[-]
     ix    iy  index   (input) (computed) (relative)
  --------------------------------------------------
     2    25     51       0.09       0.11       0.13
     3    25     76       0.09       0.11       0.14
     4    25    101       0.07       0.08       0.28
 
 Time of computation ->  20241203.080000      in sec:     201600.
 **  Heading lines  **
 -> 20241203.080000                                                                 
 accuracy OK in  86.08 % of wet grid points ( 99.50 % required)

 accuracy OK in  91.98 % of wet grid points ( 99.50 % required)

 accuracy OK in  94.09 % of wet grid points ( 99.50 % required)

 accuracy OK in  97.47 % of wet grid points ( 99.50 % required)

 accuracy OK in  98.73 % of wet grid points ( 99.50 % required)

  ** WARNING : Differences in wave height at the boundary
 Relative difference between input and computation >=   0.10
                         Hs[m]      Hs[m]      Hs[-]
     ix    iy  index   (input) (computed) (relative)
  --------------------------------------------------
     2    25     51       0.09       0.11       0.13
     3    25     76       0.09       0.10       0.13
     4    25    101       0.07       0.08       0.26
 
 Time of computation ->  20241203.090000      in sec:     205200.
 **  Heading lines  **
 -> 20241203.090000                                                                 
 accuracy OK in  86.08 % of wet grid points ( 99.50 % required)

 accuracy OK in  91.98 % of wet grid points ( 99.50 % required)

 accuracy OK in  93.67 % of wet grid points ( 99.50 % required)

 accuracy OK in  95.36 % of wet grid points ( 99.50 % required)

 accuracy OK in  98.73 % of wet grid points ( 99.50 % required)

  ** WARNING : Differences in wave height at the boundary
 Relative difference between input and computation >=   0.10
                         Hs[m]      Hs[m]      Hs[-]
     ix    iy  index   (input) (computed) (relative)
  --------------------------------------------------
     2    25     51       0.09       0.11       0.13
     3    25     76       0.09       0.10       0.13
     4    25    101       0.07       0.08       0.26
 
 Time of computation ->  20241203.100000      in sec:     208800.
 **  Heading lines  **
 -> 20241203.100000                                                                 
 accuracy OK in  82.70 % of wet grid points ( 99.50 % required)

 accuracy OK in  87.34 % of wet grid points ( 99.50 % required)

 accuracy OK in  92.83 % of wet grid points ( 99.50 % required)

 accuracy OK in  93.67 % of wet grid points ( 99.50 % required)

 accuracy OK in  94.94 % of wet grid points ( 99.50 % required)

  ** WARNING : Differences in wave height at the boundary
 Relative difference between input and computation >=   0.10
                         Hs[m]      Hs[m]      Hs[-]
     ix    iy  index   (input) (computed) (relative)
  --------------------------------------------------
     2    25     51       0.09       0.11       0.14
     3    25     76       0.09       0.11       0.14
     4    25    101       0.07       0.08       0.27
 
 Time of computation ->  20241203.110000      in sec:     212400.
 **  Heading lines  **
 -> 20241203.110000                                                                 
 accuracy OK in  88.19 % of wet grid points ( 99.50 % required)

 accuracy OK in  80.59 % of wet grid points ( 99.50 % required)

 accuracy OK in  58.23 % of wet grid points ( 99.50 % required)

 accuracy OK in  73.42 % of wet grid points ( 99.50 % required)

 accuracy OK in  87.76 % of wet grid points ( 99.50 % required)

  ** WARNING : Differences in wave height at the boundary
 Relative difference between input and computation >=   0.10
                         Hs[m]      Hs[m]      Hs[-]
     ix    iy  index   (input) (computed) (relative)
  --------------------------------------------------
     2    25     51       0.09       0.11       0.13
     3    25     76       0.09       0.10       0.14
     4    25    101       0.07       0.08       0.26
 
 Time of computation ->  20241203.120000      in sec:     216000.
 **  Heading lines  **
 -> 20241203.120000                                                                 
 accuracy OK in  23.21 % of wet grid points ( 99.50 % required)

 accuracy OK in  38.82 % of wet grid points ( 99.50 % required)

 accuracy OK in  65.82 % of wet grid points ( 99.50 % required)

 accuracy OK in  79.75 % of wet grid points ( 99.50 % required)

 accuracy OK in  98.31 % of wet grid points ( 99.50 % required)

  ** WARNING : Differences in wave height at the boundary
 Relative difference between input and computation >=   0.10
                         Hs[m]      Hs[m]      Hs[-]
     ix    iy  index   (input) (computed) (relative)
  --------------------------------------------------
     2    25     51       0.09       0.11       0.12
     3    25     76       0.09       0.10       0.13
     4    25    101       0.07       0.08       0.25
 
 Time of computation ->  20241203.130000      in sec:     219600.
 **  Heading lines  **
 -> 20241203.130000                                                                 
 accuracy OK in  80.17 % of wet grid points ( 99.50 % required)

 accuracy OK in  92.83 % of wet grid points ( 99.50 % required)

 accuracy OK in  95.36 % of wet grid points ( 99.50 % required)

 accuracy OK in  97.89 % of wet grid points ( 99.50 % required)

 accuracy OK in  98.73 % of wet grid points ( 99.50 % required)

  ** WARNING : Differences in wave height at the boundary
 Relative difference between input and computation >=   0.10
                         Hs[m]      Hs[m]      Hs[-]
     ix    iy  index   (input) (computed) (relative)
  --------------------------------------------------
     2    25     51       0.09       0.10       0.11
     3    25     76       0.09       0.10       0.12
     4    25    101       0.07       0.08       0.24
 
 Time of computation ->  20241203.140000      in sec:     223200.
 **  Heading lines  **
 -> 20241203.140000                                                                 
 accuracy OK in  37.97 % of wet grid points ( 99.50 % required)

 accuracy OK in  25.32 % of wet grid points ( 99.50 % required)

 accuracy OK in  32.91 % of wet grid points ( 99.50 % required)

 accuracy OK in  36.71 % of wet grid points ( 99.50 % required)

 accuracy OK in  46.84 % of wet grid points ( 99.50 % required)

  ** WARNING : Differences in wave height at the boundary
 Relative difference between input and computation >=   0.10
                         Hs[m]      Hs[m]      Hs[-]
     ix    iy  index   (input) (computed) (relative)
  --------------------------------------------------
     2    25     51       0.09       0.11       0.12
     3    25     76       0.09       0.10       0.13
     4    25    101       0.07       0.08       0.25
 
 Time of computation ->  20241203.150000      in sec:     226800.
 **  Heading lines  **
 -> 20241203.150000                                                                 
 accuracy OK in   6.75 % of wet grid points ( 99.50 % required)

 accuracy OK in   8.86 % of wet grid points ( 99.50 % required)

 accuracy OK in  11.39 % of wet grid points ( 99.50 % required)

 accuracy OK in  16.03 % of wet grid points ( 99.50 % required)

 accuracy OK in  18.14 % of wet grid points ( 99.50 % required)

  ** WARNING : Differences in wave height at the boundary
 Relative difference between input and computation >=   0.10
                         Hs[m]      Hs[m]      Hs[-]
     ix    iy  index   (input) (computed) (relative)
  --------------------------------------------------
     2    25     51       0.09       0.11       0.14
     3    25     76       0.09       0.11       0.15
     4    25    101       0.07       0.08       0.29
 
 Time of computation ->  20241203.160000      in sec:     230400.
 **  Heading lines  **
 -> 20241203.160000                                                                 
 accuracy OK in   6.33 % of wet grid points ( 99.50 % required)

 accuracy OK in   7.59 % of wet grid points ( 99.50 % required)

 accuracy OK in  11.39 % of wet grid points ( 99.50 % required)

 accuracy OK in  14.77 % of wet grid points ( 99.50 % required)

 accuracy OK in  19.83 % of wet grid points ( 99.50 % required)

  ** WARNING : Differences in wave height at the boundary
 Relative difference between input and computation >=   0.10
                         Hs[m]      Hs[m]      Hs[-]
     ix    iy  index   (input) (computed) (relative)
  --------------------------------------------------
     2    25     51       0.09       0.11       0.17
     3    25     76       0.09       0.11       0.18
     4    25    101       0.07       0.09       0.34
 
 Time of computation ->  20241203.170000      in sec:     234000.
 **  Heading lines  **
 -> 20241203.170000                                                                 
 accuracy OK in   6.33 % of wet grid points ( 99.50 % required)

 accuracy OK in  11.39 % of wet grid points ( 99.50 % required)

 accuracy OK in  16.88 % of wet grid points ( 99.50 % required)

 accuracy OK in  21.10 % of wet grid points ( 99.50 % required)

 accuracy OK in  27.85 % of wet grid points ( 99.50 % required)

  ** WARNING : Differences in wave height at the boundary
 Relative difference between input and computation >=   0.10
                         Hs[m]      Hs[m]      Hs[-]
     ix    iy  index   (input) (computed) (relative)
  --------------------------------------------------
     2    25     51       0.09       0.11       0.18
     3    25     76       0.09       0.11       0.20
     4    25    101       0.07       0.09       0.39
 
 Time of computation ->  20241203.180000      in sec:     237600.
 **  Heading lines  **
 -> 20241203.180000                                                                 
 accuracy OK in   5.91 % of wet grid points ( 99.50 % required)

 accuracy OK in   6.75 % of wet grid points ( 99.50 % required)

 accuracy OK in   9.28 % of wet grid points ( 99.50 % required)

 accuracy OK in  14.35 % of wet grid points ( 99.50 % required)

 accuracy OK in  19.83 % of wet grid points ( 99.50 % required)

  ** WARNING : Differences in wave height at the boundary
 Relative difference between input and computation >=   0.10
                         Hs[m]      Hs[m]      Hs[-]
     ix    iy  index   (input) (computed) (relative)
  --------------------------------------------------
     1    25     26       0.10       0.11       0.11
     2    25     51       0.09       0.11       0.21
     3    25     76       0.09       0.11       0.23
     4    25    101       0.07       0.09       0.44
     1    24     25       0.10       0.11       0.10
     1    23     24       0.10       0.11       0.10
     1    22     23       0.10       0.11       0.10
 
 Time of computation ->  20241203.190000      in sec:     241200.
 **  Heading lines  **
 -> 20241203.190000                                                                 
 accuracy OK in  48.52 % of wet grid points ( 99.50 % required)

 accuracy OK in  56.96 % of wet grid points ( 99.50 % required)

 accuracy OK in  76.79 % of wet grid points ( 99.50 % required)

 accuracy OK in  86.92 % of wet grid points ( 99.50 % required)

 accuracy OK in  91.14 % of wet grid points ( 99.50 % required)

  ** WARNING : Differences in wave height at the boundary
 Relative difference between input and computation >=   0.10
                         Hs[m]      Hs[m]      Hs[-]
     ix    iy  index   (input) (computed) (relative)
  --------------------------------------------------
     1    25     26       0.10       0.11       0.11
     2    25     51       0.09       0.11       0.22
     3    25     76       0.09       0.11       0.24
     4    25    101       0.07       0.09       0.46
     1    24     25       0.10       0.11       0.11
     1    23     24       0.10       0.11       0.11
     1    22     23       0.10       0.11       0.11
     1    21     22       0.10       0.11       0.11
     1    20     21       0.10       0.11       0.10
 
 Time of computation ->  20241203.200000      in sec:     244800.
 **  Heading lines  **
 -> 20241203.200000                                                                 
 accuracy OK in  42.62 % of wet grid points ( 99.50 % required)

 accuracy OK in  48.10 % of wet grid points ( 99.50 % required)

 accuracy OK in  64.98 % of wet grid points ( 99.50 % required)

 accuracy OK in  83.12 % of wet grid points ( 99.50 % required)

 accuracy OK in  89.87 % of wet grid points ( 99.50 % required)

  ** WARNING : Differences in wave height at the boundary
 Relative difference between input and computation >=   0.10
                         Hs[m]      Hs[m]      Hs[-]
     ix    iy  index   (input) (computed) (relative)
  --------------------------------------------------
     1    25     26       0.10       0.11       0.13
     2    25     51       0.09       0.12       0.25
     3    25     76       0.09       0.12       0.27
     4    25    101       0.07       0.10       0.50
     1    24     25       0.10       0.11       0.13
     1    23     24       0.10       0.11       0.13
     1    22     23       0.10       0.11       0.13
     1    21     22       0.10       0.11       0.12
     1    20     21       0.10       0.11       0.12
     1    19     20       0.10       0.11       0.11
     1    18     19       0.10       0.11       0.11
     1    17     18       0.10       0.11       0.10
     1    16     17       0.10       0.12       0.10
 
 Time of computation ->  20241203.210000      in sec:     248400.
 **  Heading lines  **
 -> 20241203.210000                                                                 
 accuracy OK in  41.35 % of wet grid points ( 99.50 % required)

 accuracy OK in  59.07 % of wet grid points ( 99.50 % required)

 accuracy OK in  86.08 % of wet grid points ( 99.50 % required)

 accuracy OK in  88.19 % of wet grid points ( 99.50 % required)

 accuracy OK in  91.14 % of wet grid points ( 99.50 % required)

  ** WARNING : Differences in wave height at the boundary
 Relative difference between input and computation >=   0.10
                         Hs[m]      Hs[m]      Hs[-]
     ix    iy  index   (input) (computed) (relative)
  --------------------------------------------------
     1    25     26       0.10       0.11       0.15
     2    25     51       0.09       0.12       0.26
     3    25     76       0.09       0.12       0.29
     4    25    101       0.07       0.10       0.54
     1    24     25       0.10       0.11       0.15
     1    23     24       0.10       0.11       0.15
     1    22     23       0.10       0.11       0.14
     1    21     22       0.10       0.11       0.14
     1    20     21       0.10       0.11       0.14
     1    19     20       0.10       0.12       0.13
     1    18     19       0.10       0.12       0.13
[...]

 accuracy OK in  37.13 % of wet grid points ( 99.50 % required)

 accuracy OK in  76.37 % of wet grid points ( 99.50 % required)

 accuracy OK in  95.36 % of wet grid points ( 99.50 % required)

 accuracy OK in  98.73 % of wet grid points ( 99.50 % required)

  ** WARNING : Differences in wave height at the boundary
 Relative difference between input and computation >=   0.10
                         Hs[m]      Hs[m]      Hs[-]
     ix    iy  index   (input) (computed) (relative)
  --------------------------------------------------
     2    25     51       0.09       0.11       0.13
     3    25     76       0.09       0.11       0.14
     4    25    101       0.07       0.08       0.27
 
 Time of computation ->  20241230.070000      in sec:    2530800.
 **  Heading lines  **
 -> 20241230.070000                                                                 
 accuracy OK in  13.50 % of wet grid points ( 99.50 % required)

 accuracy OK in  27.43 % of wet grid points ( 99.50 % required)

 accuracy OK in  45.99 % of wet grid points ( 99.50 % required)

 accuracy OK in  70.89 % of wet grid points ( 99.50 % required)

 accuracy OK in  94.94 % of wet grid points ( 99.50 % required)

  ** WARNING : Differences in wave height at the boundary
 Relative difference between input and computation >=   0.10
                         Hs[m]      Hs[m]      Hs[-]
     ix    iy  index   (input) (computed) (relative)
  --------------------------------------------------
     2    25     51       0.09       0.10       0.12
     3    25     76       0.09       0.10       0.13
     4    25    101       0.07       0.08       0.25
 
 Time of computation ->  20241230.080000      in sec:    2534400.
 **  Heading lines  **
 -> 20241230.080000                                                                 
 accuracy OK in  16.88 % of wet grid points ( 99.50 % required)

 accuracy OK in  26.58 % of wet grid points ( 99.50 % required)

 accuracy OK in  39.66 % of wet grid points ( 99.50 % required)

 accuracy OK in  62.45 % of wet grid points ( 99.50 % required)

 accuracy OK in  63.29 % of wet grid points ( 99.50 % required)

  ** WARNING : Differences in wave height at the boundary
 Relative difference between input and computation >=   0.10
                         Hs[m]      Hs[m]      Hs[-]
     ix    iy  index   (input) (computed) (relative)
  --------------------------------------------------
     2    25     51       0.09       0.10       0.10
     3    25     76       0.09       0.10       0.11
     4    25    101       0.07       0.08       0.22
 
 Time of computation ->  20241230.090000      in sec:    2538000.
 **  Heading lines  **
 -> 20241230.090000                                                                 
 accuracy OK in  75.11 % of wet grid points ( 99.50 % required)

 accuracy OK in  94.09 % of wet grid points ( 99.50 % required)

 accuracy OK in  96.20 % of wet grid points ( 99.50 % required)

 accuracy OK in  98.73 % of wet grid points ( 99.50 % required)

 accuracy OK in  98.73 % of wet grid points ( 99.50 % required)

  ** WARNING : Differences in wave height at the boundary
 Relative difference between input and computation >=   0.10
                         Hs[m]      Hs[m]      Hs[-]
     ix    iy  index   (input) (computed) (relative)
  --------------------------------------------------
     2    25     51       0.09       0.10       0.10
     3    25     76       0.09       0.10       0.11
     4    25    101       0.07       0.08       0.22
 
 Time of computation ->  20241230.100000      in sec:    2541600.
 **  Heading lines  **
 -> 20241230.100000                                                                 
 accuracy OK in  58.23 % of wet grid points ( 99.50 % required)

 accuracy OK in  63.29 % of wet grid points ( 99.50 % required)

 accuracy OK in  74.68 % of wet grid points ( 99.50 % required)

 accuracy OK in  84.39 % of wet grid points ( 99.50 % required)

 accuracy OK in  93.25 % of wet grid points ( 99.50 % required)

  ** WARNING : Differences in wave height at the boundary
 Relative difference between input and computation >=   0.10
                         Hs[m]      Hs[m]      Hs[-]
     ix    iy  index   (input) (computed) (relative)
  --------------------------------------------------
     2    25     51       0.09       0.10       0.11
     3    25     76       0.09       0.10       0.12
     4    25    101       0.07       0.08       0.24
 
 Time of computation ->  20241230.110000      in sec:    2545200.
 **  Heading lines  **
 -> 20241230.110000                                                                 
 accuracy OK in  89.03 % of wet grid points ( 99.50 % required)

 accuracy OK in  92.83 % of wet grid points ( 99.50 % required)

 accuracy OK in  96.20 % of wet grid points ( 99.50 % required)

 accuracy OK in  97.47 % of wet grid points ( 99.50 % required)

 accuracy OK in  98.73 % of wet grid points ( 99.50 % required)

  ** WARNING : Differences in wave height at the boundary
 Relative difference between input and computation >=   0.10
                         Hs[m]      Hs[m]      Hs[-]
     ix    iy  index   (input) (computed) (relative)
  --------------------------------------------------
     2    25     51       0.09       0.10       0.12
     3    25     76       0.09       0.10       0.12
     4    25    101       0.07       0.08       0.24
 
 Time of computation ->  20241230.120000      in sec:    2548800.
 **  Heading lines  **
 -> 20241230.120000                                                                 
 accuracy OK in  12.24 % of wet grid points ( 99.50 % required)

 accuracy OK in  14.35 % of wet grid points ( 99.50 % required)

 accuracy OK in  22.36 % of wet grid points ( 99.50 % required)

 accuracy OK in  24.89 % of wet grid points ( 99.50 % required)

 accuracy OK in  30.80 % of wet grid points ( 99.50 % required)

  ** WARNING : Differences in wave height at the boundary
 Relative difference between input and computation >=   0.10
                         Hs[m]      Hs[m]      Hs[-]
     ix    iy  index   (input) (computed) (relative)
  --------------------------------------------------
     2    25     51       0.09       0.10       0.11
     3    25     76       0.09       0.10       0.11
     4    25    101       0.07       0.08       0.23
 
 Time of computation ->  20241230.130000      in sec:    2552400.
 **  Heading lines  **
 -> 20241230.130000                                                                 
 accuracy OK in  10.55 % of wet grid points ( 99.50 % required)

 accuracy OK in  26.16 % of wet grid points ( 99.50 % required)

 accuracy OK in  36.29 % of wet grid points ( 99.50 % required)

 accuracy OK in  48.95 % of wet grid points ( 99.50 % required)

 accuracy OK in  58.65 % of wet grid points ( 99.50 % required)

  ** WARNING : Differences in wave height at the boundary
 Relative difference between input and computation >=   0.10
                         Hs[m]      Hs[m]      Hs[-]
     ix    iy  index   (input) (computed) (relative)
  --------------------------------------------------
     3    25     76       0.09       0.10       0.10
     4    25    101       0.07       0.08       0.21
 
 Time of computation ->  20241230.140000      in sec:    2556000.
 **  Heading lines  **
 -> 20241230.140000                                                                 
 accuracy OK in  70.89 % of wet grid points ( 99.50 % required)

 accuracy OK in  50.63 % of wet grid points ( 99.50 % required)

 accuracy OK in  44.30 % of wet grid points ( 99.50 % required)

 accuracy OK in  45.15 % of wet grid points ( 99.50 % required)

 accuracy OK in  59.92 % of wet grid points ( 99.50 % required)

  ** WARNING : Differences in wave height at the boundary
 Relative difference between input and computation >=   0.10
                         Hs[m]      Hs[m]      Hs[-]
     ix    iy  index   (input) (computed) (relative)
  --------------------------------------------------
     2    25     51       0.09       0.10       0.10
     3    25     76       0.09       0.10       0.11
     4    25    101       0.07       0.08       0.22
 
 Time of computation ->  20241230.150000      in sec:    2559600.
 **  Heading lines  **
 -> 20241230.150000                                                                 
 accuracy OK in   6.75 % of wet grid points ( 99.50 % required)

 accuracy OK in  10.13 % of wet grid points ( 99.50 % required)

 accuracy OK in  12.66 % of wet grid points ( 99.50 % required)

 accuracy OK in  19.41 % of wet grid points ( 99.50 % required)

 accuracy OK in  20.68 % of wet grid points ( 99.50 % required)

  ** WARNING : Differences in wave height at the boundary
 Relative difference between input and computation >=   0.10
                         Hs[m]      Hs[m]      Hs[-]
     ix    iy  index   (input) (computed) (relative)
  --------------------------------------------------
     2    25     51       0.09       0.11       0.13
     3    25     76       0.09       0.10       0.13
     4    25    101       0.07       0.08       0.25
 
 Time of computation ->  20241230.160000      in sec:    2563200.
 **  Heading lines  **
 -> 20241230.160000                                                                 
 accuracy OK in   6.75 % of wet grid points ( 99.50 % required)

 accuracy OK in  10.13 % of wet grid points ( 99.50 % required)

 accuracy OK in  16.03 % of wet grid points ( 99.50 % required)

 accuracy OK in  18.57 % of wet grid points ( 99.50 % required)

 accuracy OK in  23.63 % of wet grid points ( 99.50 % required)

  ** WARNING : Differences in wave height at the boundary
 Relative difference between input and computation >=   0.10
                         Hs[m]      Hs[m]      Hs[-]
     ix    iy  index   (input) (computed) (relative)
  --------------------------------------------------
     2    25     51       0.09       0.11       0.14
     3    25     76       0.09       0.11       0.15
     4    25    101       0.07       0.08       0.29
 
 Time of computation ->  20241230.170000      in sec:    2566800.
 **  Heading lines  **
 -> 20241230.170000                                                                 
 accuracy OK in   8.02 % of wet grid points ( 99.50 % required)

 accuracy OK in  13.92 % of wet grid points ( 99.50 % required)

 accuracy OK in  21.10 % of wet grid points ( 99.50 % required)

 accuracy OK in  28.27 % of wet grid points ( 99.50 % required)

 accuracy OK in  35.02 % of wet grid points ( 99.50 % required)

  ** WARNING : Differences in wave height at the boundary
 Relative difference between input and computation >=   0.10
                         Hs[m]      Hs[m]      Hs[-]
     ix    iy  index   (input) (computed) (relative)
  --------------------------------------------------
     2    25     51       0.09       0.11       0.16
     3    25     76       0.09       0.11       0.17
     4    25    101       0.07       0.09       0.32
 
 Time of computation ->  20241230.180000      in sec:    2570400.
 **  Heading lines  **
 -> 20241230.180000                                                                 
 accuracy OK in   6.33 % of wet grid points ( 99.50 % required)

 accuracy OK in   8.02 % of wet grid points ( 99.50 % required)

 accuracy OK in  12.66 % of wet grid points ( 99.50 % required)

 accuracy OK in  16.46 % of wet grid points ( 99.50 % required)

 accuracy OK in  23.21 % of wet grid points ( 99.50 % required)

  ** WARNING : Differences in wave height at the boundary
 Relative difference between input and computation >=   0.10
                         Hs[m]      Hs[m]      Hs[-]
     ix    iy  index   (input) (computed) (relative)
  --------------------------------------------------
     2    25     51       0.09       0.11       0.18
     3    25     76       0.09       0.11       0.20
     4    25    101       0.07       0.09       0.38
 
 Time of computation ->  20241230.190000      in sec:    2574000.
 **  Heading lines  **
 -> 20241230.190000                                                                 
 accuracy OK in   6.33 % of wet grid points ( 99.50 % required)

 accuracy OK in  10.55 % of wet grid points ( 99.50 % required)

 accuracy OK in  13.50 % of wet grid points ( 99.50 % required)

 accuracy OK in  20.25 % of wet grid points ( 99.50 % required)

 accuracy OK in  27.00 % of wet grid points ( 99.50 % required)

  ** WARNING : Differences in wave height at the boundary
 Relative difference between input and computation >=   0.10
                         Hs[m]      Hs[m]      Hs[-]
     ix    iy  index   (input) (computed) (relative)
  --------------------------------------------------
     1    25     26       0.10       0.11       0.10
     2    25     51       0.09       0.11       0.21
     3    25     76       0.09       0.11       0.22
     4    25    101       0.07       0.09       0.41
     1    24     25       0.10       0.11       0.10
 
 Time of computation ->  20241230.200000      in sec:    2577600.
 **  Heading lines  **
 -> 20241230.200000                                                                 
 accuracy OK in   5.91 % of wet grid points ( 99.50 % required)

 accuracy OK in   6.75 % of wet grid points ( 99.50 % required)

 accuracy OK in  11.81 % of wet grid points ( 99.50 % required)

 accuracy OK in  16.88 % of wet grid points ( 99.50 % required)

 accuracy OK in  21.94 % of wet grid points ( 99.50 % required)

  ** WARNING : Differences in wave height at the boundary
 Relative difference between input and computation >=   0.10
                         Hs[m]      Hs[m]      Hs[-]
     ix    iy  index   (input) (computed) (relative)
  --------------------------------------------------
     1    25     26       0.10       0.11       0.11
     2    25     51       0.09       0.12       0.23
     3    25     76       0.09       0.11       0.25
     4    25    101       0.07       0.10       0.46
     1    24     25       0.10       0.11       0.11
     1    23     24       0.10       0.11       0.11
     1    22     23       0.10       0.11       0.11
     1    21     22       0.10       0.11       0.10
     1    20     21       0.10       0.11       0.10
 
 Time of computation ->  20241230.210000      in sec:    2581200.
 **  Heading lines  **
 -> 20241230.210000                                                                 
 accuracy OK in  59.07 % of wet grid points ( 99.50 % required)

 accuracy OK in  84.39 % of wet grid points ( 99.50 % required)

 accuracy OK in  88.61 % of wet grid points ( 99.50 % required)

 accuracy OK in  90.30 % of wet grid points ( 99.50 % required)

 accuracy OK in  90.72 % of wet grid points ( 99.50 % required)

  ** WARNING : Differences in wave height at the boundary
 Relative difference between input and computation >=   0.10
                         Hs[m]      Hs[m]      Hs[-]
     ix    iy  index   (input) (computed) (relative)
  --------------------------------------------------
     1    25     26       0.10       0.11       0.12
     2    25     51       0.09       0.12       0.24
     3    25     76       0.09       0.12       0.26
     4    25    101       0.07       0.10       0.49
     1    24     25       0.10       0.11       0.12
     1    23     24       0.10       0.11       0.12
     1    22     23       0.10       0.11       0.11
     1    21     22       0.10       0.11       0.11
     1    20     21       0.10       0.11       0.11
     1    19     20       0.10       0.11       0.10
 
 Time of computation ->  20241230.220000      in sec:    2584800.
 **  Heading lines  **
 -> 20241230.220000                                                                 
 accuracy OK in  86.92 % of wet grid points ( 99.50 % required)

 accuracy OK in  90.30 % of wet grid points ( 99.50 % required)

 accuracy OK in  91.14 % of wet grid points ( 99.50 % required)

 accuracy OK in  91.98 % of wet grid points ( 99.50 % required)

 accuracy OK in  91.98 % of wet grid points ( 99.50 % required)

  ** WARNING : Differences in wave height at the boundary
 Relative difference between input and computation >=   0.10
                         Hs[m]      Hs[m]      Hs[-]
     ix    iy  index   (input) (computed) (relative)
  --------------------------------------------------
     1    25     26       0.10       0.11       0.13
     2    25     51       0.09       0.12       0.24
     3    25     76       0.09       0.12       0.26
     4    25    101       0.07       0.10       0.48
     1    24     25       0.10       0.11       0.13
     1    23     24       0.10       0.11       0.12
     1    22     23       0.10       0.11       0.12
     1    21     22       0.10       0.11       0.12
     1    20     21       0.10       0.11       0.11
     1    19     20       0.10       0.11       0.11
     1    18     19       0.10       0.11       0.10
 
 Time of computation ->  20241230.230000      in sec:    2588400.
 **  Heading lines  **
 -> 20241230.230000                                                                 
 accuracy OK in  88.61 % of wet grid points ( 99.50 % required)

 accuracy OK in  90.30 % of wet grid points ( 99.50 % required)

 accuracy OK in  90.72 % of wet grid points ( 99.50 % required)

 accuracy OK in  91.56 % of wet grid points ( 99.50 % required)

 accuracy OK in  91.56 % of wet grid points ( 99.50 % required)

  ** WARNING : Differences in wave height at the boundary
 Relative difference between input and computation >=   0.10
                         Hs[m]      Hs[m]      Hs[-]
     ix    iy  index   (input) (computed) (relative)
  --------------------------------------------------
     1    25     26       0.10       0.11       0.14
     2    25     51       0.09       0.12       0.24
     3    25     76       0.09       0.12       0.26
     4    25    101       0.07       0.10       0.50
     1    24     25       0.10       0.11       0.14
     1    23     24       0.10       0.11       0.13
     1    22     23       0.10       0.11       0.13
     1    21     22       0.10       0.11       0.13
     1    20     21       0.10       0.11       0.12
     1    19     20       0.10       0.11       0.12
     1    18     19       0.10       0.11       0.11
     1    17     18       0.10       0.12       0.11
     1    16     17       0.10       0.12       0.10
 
 Time of computation ->  20241231.000000      in sec:    2592000.
 **  Heading lines  **
 -> 20241231.000000                                                                 
 accuracy OK in  88.61 % of wet grid points ( 99.50 % required)

 accuracy OK in  89.87 % of wet grid points ( 99.50 % required)

 accuracy OK in  90.30 % of wet grid points ( 99.50 % required)

 accuracy OK in  90.72 % of wet grid points ( 99.50 % required)

 accuracy OK in  91.14 % of wet grid points ( 99.50 % required)

  ** WARNING : Differences in wave height at the boundary
 Relative difference between input and computation >=   0.10
                         Hs[m]      Hs[m]      Hs[-]
     ix    iy  index   (input) (computed) (relative)
  --------------------------------------------------
     1    25     26       0.10       0.11       0.15
     2    25     51       0.09       0.12       0.26
     3    25     76       0.09       0.12       0.28
     4    25    101       0.07       0.10       0.52
     1    24     25       0.10       0.11       0.16
     1    23     24       0.10       0.11       0.15
     1    22     23       0.10       0.11       0.15
     1    21     22       0.10       0.11       0.15
     1    20     21       0.10       0.12       0.14
     1    19     20       0.10       0.12       0.14
     1    18     19       0.10       0.12       0.13
     1    17     18       0.10       0.12       0.12
     1    16     17       0.10       0.12       0.12
     1    15     16       0.11       0.12       0.11
     1    14     15       0.11       0.12       0.11
     1    13     14       0.11       0.12       0.10
 
    
 STOP
