1

                    Execution started at 20250403.165247         



                    ---------------------------------------
                                     SWAN
                    SIMULATION OF WAVES IN NEAR SHORE AREAS
                             VERSION NUMBER 41.51               
                    ---------------------------------------


    
 PROJECT '' ''
    
 SET 0.00 90.00 0.05 200 1 9.81 1025.00 30
    
 MODE NONSTATIONARY TWODIMENSIONAL
    
 COORDINATES SPHERICAL
    
 
    
 
    
 $ COMPUTATIONAL GRID
    
 $ -------------------------------------------------------------------------------
    
 CGRID REGULAR -79.533648 -10.009831 0.00 1.373737 1.003244 14 10 &
 CIRCLE 36 0.040 1.000 34
 Resolution in sigma-space: df/f =  0.0993
    
 
    
 $ -------------------------------------------------------------------------------
    
 
    
 $ BOTTOM & FRICTION INPUT
    
 $ -------------------------------------------------------------------------------
    
 INPGRID BOTTOM REGULAR -79.533648 -10.009831 0.00 14 10 0.098124 0.100324 &
 READINP BOTTOM +1 '../01_geometry/REGIONAL_20241201_20241231_BOTTOM.txt' 3 3 FORMAT '((15f8.2))'
 **  Heading lines file ../01_geometry/REGIONAL_20241201_20241231_BOTTOM.txt **
 -> INPGRID BOTTOM REGULAR -79.533648 -10.009831 0.00 14 10 0.098124 0.100324 &     
 -> READINP BOTTOM +1 '../01_geometry/REGIONAL_20241201_20241231_BOTTOM.txt' 3 3 FOR
 ->                                                                                 
    
 
    
 $ -------------------------------------------------------------------------------
    
 
    
 $ WIND INPUT
    
 $ -------------------------------------------------------------------------------
    
 INPGRID WIND REGULAR -79.750000 -10.000000 0.00 7 4 0.250000 0.250000 &
 NONSTATIONARY 20241201.000000 3600.00 SEC 20241231.000000
    
 READINP WIND +1 '../02_bc_dbase/REGIONAL_20241201_20241231_WIND.txt' 3 4 1 0 FORMAT '((8f7.2))'
 **  Heading lines file ../02_bc_dbase/REGIONAL_20241201_20241231_WIND.txt **
 -> INPGRID WIND REGULAR -79.750000 -10.000000 0.00 7 4 0.250000 0.250000 &         
 -> NONSTATIONARY 20241201.000000 3600.00 SEC 20241231.000000                       
 -> READINP WIND +1 '../02_bc_dbase/REGIONAL_20241201_20241231_WIND.txt' 3 4 1 0 FOR
 ->                                                                                 
 **  Heading lines  **
 -> 20241201.000000                                                                 
    
 
    
 $ -------------------------------------------------------------------------------
    
 
    
 $ HYDRODYNAMIC INPUT
    
 $ -------------------------------------------------------------------------------
    
 $ N/A NO SURFACE INPUT
    
 
    
 $ N/A NO CURRENT INPUT
    
 $ -------------------------------------------------------------------------------
    
 
    
 $ BOUNDARY SPECTRA INPUT
    
 $ -------------------------------------------------------------------------------
    
 BOUND SHAPESPEC PM PEAK DSPR DEGREES
    
 BOUNDSPEC SEGMENT IJ 0,0 14,0 14,10 0,10 0,0 VARIABLE FILE &
 0.000000 '../02_bc_dbase/REGIONAL_20241201_20241231_SPECTRA_P00.tpar' 1 &
 0.457912 '../02_bc_dbase/REGIONAL_20241201_20241231_SPECTRA_P01.tpar' 1 &
 0.915825 '../02_bc_dbase/REGIONAL_20241201_20241231_SPECTRA_P02.tpar' 1 &
 1.373737 '../02_bc_dbase/REGIONAL_20241201_20241231_SPECTRA_P03.tpar' 1 &
 1.875359 '../02_bc_dbase/REGIONAL_20241201_20241231_SPECTRA_P04.tpar' 1 &
 2.376981 '../02_bc_dbase/REGIONAL_20241201_20241231_SPECTRA_P05.tpar' 1 &
 2.834893 '../02_bc_dbase/REGIONAL_20241201_20241231_SPECTRA_P06.tpar' 1 &
 3.292806 '../02_bc_dbase/REGIONAL_20241201_20241231_SPECTRA_P07.tpar' 1 &
 3.750718 '../02_bc_dbase/REGIONAL_20241201_20241231_SPECTRA_P08.tpar' 1 &
 ** Warning          : Length of segment short, boundary values ignored
 segment length=     3.18; [len]=     3.75
 4.252340 '../02_bc_dbase/REGIONAL_20241201_20241231_SPECTRA_P09.tpar' 1 &
 ** Warning          : Length of segment short, boundary values ignored
 segment length=     3.18; [len]=     4.25
 
    
 $ -------------------------------------------------------------------------------
    
 
    
 $ PHYSICS
    
 $ -------------------------------------------------------------------------------
    
 GEN3
    
 FRICTION JONSWAP
    
 $ -------------------------------------------------------------------------------
    
 
    
 $ NUMERICS
    
 $ -------------------------------------------------------------------------------
    
 PROP BSBT
    
 NUMERIC ACCUR 0.005 0.010 0.005 99.50 NONSTATIONARY 5 0.01
    
 $ -------------------------------------------------------------------------------
    
 
    
 $ OUTPUT
    
 $ -------------------------------------------------------------------------------
    
 NGRID 'NEST00' -78.677052 -9.819253 0.00 0.442350 0.668440
    
 NESTOUT 'NEST00' '../04_results/TRANSITION_20241201_20241231.nest' OUTPUT 20241201.000000 3600 SEC
    
 
    
 BLOCK 'COMPGRID' NOHEADER '../04_results/REGIONAL_20241201_20241231.mat' &
 LAY-OUT 3 XP YP HSIGN TPS PDIR DIR UBOT TMBOT FORCE DEPTH OUTPUT 20241201.000000 3600 SEC
    
 
    
 $ N/A No spectral output
    
 $ -------------------------------------------------------------------------------
    
 
    
 $ LOCKUP
    
 $ -------------------------------------------------------------------------------
    
 INITIAL DEFAULT
    
 COMPUTE NONSTATIONARY 20241201.000000 3600 SEC 20241231.000000
 Boundary data type TPAR processed, time:           0.
 Boundary data type TPAR processed, time:           0.
 Boundary data type TPAR processed, time:           0.
 Boundary data type TPAR processed, time:           0.
 Boundary data type TPAR processed, time:           0.
 Boundary data type TPAR processed, time:           0.
 Boundary data type TPAR processed, time:           0.
 Boundary data type TPAR processed, time:           0.
 Boundary data type TPAR processed, time:           0.
 Boundary data type TPAR processed, time:           0.
 Time of computation ->  20241201.010000      in sec:       3600.
 Boundary data type TPAR processed, time:        3600.
 Boundary data type TPAR processed, time:        3600.
 Boundary data type TPAR processed, time:        3600.
 Boundary data type TPAR processed, time:        3600.
 Boundary data type TPAR processed, time:        3600.
 Boundary data type TPAR processed, time:        3600.
 Boundary data type TPAR processed, time:        3600.
 Boundary data type TPAR processed, time:        3600.
 Boundary data type TPAR processed, time:        3600.
 Boundary data type TPAR processed, time:        3600.
 **  Heading lines  **
 -> 20241201.010000                                                                 

----------------------------------------------------------------
                  COMPUTATIONAL PART OF SWAN
----------------------------------------------------------------

 Gridresolution       : MXC              15 MYC             11
                      : MCGRD           151
                      : MSC              35 MDC             36
                      : MTC             720
                      : NSTATC            1 ITERMX           5
 Propagation flags    : ITFRE             1 IREFR            1
 Source term flags    : IBOT              1 ISURF            1
                      : IWCAP             7 IWIND            5
                      : ITRIAD            0 IQUAD            2
                      : IBRAG             0 IQCM             0
                      : IVEG              0 ITURBV           0
                      : IMUD              0 IICE             0
 Spatial step         : DX       0.9812E-01 DY      0.1003E+00
 Spectral bin         : df/f     0.9930E-01 DDIR    0.1000E+02
 Physical constants   : GRAV     0.9810E+01 RHO     0.1025E+04
 Wind input           : WSPEED   0.0000E+00 DIR     0.0000E+00
                      : ICEWIND  0.00
 Tail parameters      : E(f)     0.4000E+01 E(k)    0.2500E+01
                      : A(f)     0.5000E+01 A(k)    0.3000E+01
 Accuracy parameters  : DREL     0.5000E-02 NPNTS   0.9950E+02
                      : DHOVAL   0.1000E-01 DTOVAL  0.5000E-02
                      : GRWMX    0.1000E-01
 Drying/flooding      : LEVEL    0.0000E+00 DEPMIN  0.5000E-01
 The Cartesian convention for wind and wave directions is used
 Scheme for geographic propagation is BSBT  
 Scheme geogr. space  : PROPSC            1 ICMAX            5
 Scheme spectral space: CSS      0.5000E+00 CDD     0.5000E+00
 Current is off
 Quadruplets          : IQUAD             2
                      : LAMBDA   0.2500E+00 CNL4    0.3000E+08
                      : CSH1     0.5500E+01 CSH2    0.8330E+00
                      : CSH3    -0.1250E+01
 Maximum Ursell nr for Snl4 :    0.1000E+02
 Triads is off
 Bragg scattering is off
 QC scattering is off
 Surfbeat (IEM) is off
 JONSWAP (`73)        : GAMMA    0.3800E-01
 Vegetation is off
 Turbulence is off
 Fluid mud is off
 Dissipation by sea ice is off
 W-cap Alves-Banner   : CDS2     0.5000E-04 BR      0.1750E-02
 Wind drag is Wu
 Yan/Westhuysen wind input
 Battjes&Janssen (`78): ALPHA    0.1000E+01 GAMMA   0.7300E+00
 Set-up is off
 Diffraction is off
 Janssen (`89,`90)    : ALPHA    0.1000E-01 KAPPA   0.4100E+00
 Janssen (`89,`90)    : RHOA     0.1280E+01 RHOW    0.1025E+04
 
 1st and 2nd gen. wind: CF10     0.1880E+03 CF20    0.5900E+00
                      : CF30     0.1200E+00 CF40    0.2500E+03
                      : CF50     0.2300E-02 CF60   -0.2230E+00
                      : CF70     0.0000E+00 CF80   -0.5600E+00
                      : RHOAW    0.1249E-02 EDMLPM  0.3600E-02
                      : CDRAG    0.1230E-02 UMIN    0.1000E+01
                      : LIM_PM   0.1300E+00
 
 accuracy OK in   0.00 % of wet grid points ( 99.50 % required)

 accuracy OK in   0.00 % of wet grid points ( 99.50 % required)

 accuracy OK in   0.00 % of wet grid points ( 99.50 % required)

 accuracy OK in   0.00 % of wet grid points ( 99.50 % required)

 accuracy OK in   0.00 % of wet grid points ( 99.50 % required)

  ** WARNING : Differences in wave height at the boundary
 Relative difference between input and computation >=   0.10
                         Hs[m]      Hs[m]      Hs[-]
     ix    iy  index   (input) (computed) (relative)
  --------------------------------------------------
     6    11     61       1.16       0.00       1.00
     7    11     71       1.13       0.00       1.00
     8    11     81       1.10       0.00       1.00
     9    11     91       1.06       0.00       1.00
    10    11    101       1.03       0.00       1.00
    11    11    111       1.06       0.00       1.00
    12    11    121       1.11       0.00       1.00
    13    11    131       1.16       0.00       1.00
    14    11    141       1.20       0.00       1.00
    15    11    151       1.24       0.00       1.00
    15    10    150       1.25       0.00       1.00
    15     9    149       1.26       0.00       1.00
    15     8    148       1.27       0.00       1.00
    15     7    147       1.28       0.00       1.00
    15     6    146       1.28       0.00       1.00
     1     5      5       1.17       0.00       1.00
    15     5    145       1.29       0.00       1.00
     1     4      4       1.17       0.00       1.00
    15     4    144       1.29       0.00       1.00
     1     3      3       1.17       0.00       1.00
    15     3    143       1.30       0.00       1.00
     1     2      2       1.17       0.00       1.00
    15     2    142       1.30       0.00       1.00
 
 Time of computation ->  20241201.020000      in sec:       7200.
 Boundary data type TPAR processed, time:        7200.
 Boundary data type TPAR processed, time:        7200.
 Boundary data type TPAR processed, time:        7200.
 Boundary data type TPAR processed, time:        7200.
 Boundary data type TPAR processed, time:        7200.
 Boundary data type TPAR processed, time:        7200.
 Boundary data type TPAR processed, time:        7200.
 Boundary data type TPAR processed, time:        7200.
 Boundary data type TPAR processed, time:        7200.
 Boundary data type TPAR processed, time:        7200.
 **  Heading lines  **
 -> 20241201.020000                                                                 
 accuracy OK in   0.00 % of wet grid points ( 99.50 % required)

 accuracy OK in   0.00 % of wet grid points ( 99.50 % required)

 accuracy OK in   0.00 % of wet grid points ( 99.50 % required)

 accuracy OK in   0.00 % of wet grid points ( 99.50 % required)

 accuracy OK in   0.00 % of wet grid points ( 99.50 % required)

  ** WARNING : Differences in wave height at the boundary
 Relative difference between input and computation >=   0.10
                         Hs[m]      Hs[m]      Hs[-]
     ix    iy  index   (input) (computed) (relative)
  --------------------------------------------------
     6    11     61       1.15       0.00       1.00
     7    11     71       1.12       0.00       1.00
     8    11     81       1.09       0.00       1.00
     9    11     91       1.05       0.00       1.00
    10    11    101       1.02       0.00       1.00
    11    11    111       1.05       0.00       1.00
    12    11    121       1.10       0.00       1.00
    13    11    131       1.15       0.00       1.00
    14    11    141       1.20       0.00       1.00
    15    11    151       1.24       0.00       1.00
    15    10    150       1.25       0.00       1.00
    15     9    149       1.26       0.00       1.00
    15     8    148       1.27       0.00       1.00
    15     7    147       1.29       0.00       1.00
    15     6    146       1.29       0.00       1.00
     1     5      5       1.17       0.00       1.00
    15     5    145       1.29       0.00       1.00
     1     4      4       1.17       0.00       1.00
    15     4    144       1.30       0.00       1.00
     1     3      3       1.18       0.00       1.00
    15     3    143       1.30       0.00       1.00
     1     2      2       1.18       0.00       1.00
    15     2    142       1.30       0.00       1.00
 
 Time of computation ->  20241201.030000      in sec:      10800.
 Boundary data type TPAR processed, time:       10800.
 Boundary data type TPAR processed, time:       10800.
 Boundary data type TPAR processed, time:       10800.
 Boundary data type TPAR processed, time:       10800.
 Boundary data type TPAR processed, time:       10800.
 Boundary data type TPAR processed, time:       10800.
 Boundary data type TPAR processed, time:       10800.
 Boundary data type TPAR processed, time:       10800.
 Boundary data type TPAR processed, time:       10800.
 Boundary data type TPAR processed, time:       10800.
 **  Heading lines  **
 -> 20241201.030000                                                                 
 accuracy OK in   0.00 % of wet grid points ( 99.50 % required)

 accuracy OK in   0.00 % of wet grid points ( 99.50 % required)

 accuracy OK in   0.00 % of wet grid points ( 99.50 % required)

 accuracy OK in   0.00 % of wet grid points ( 99.50 % required)

 accuracy OK in   0.00 % of wet grid points ( 99.50 % required)

  ** WARNING : Differences in wave height at the boundary
 Relative difference between input and computation >=   0.10
                         Hs[m]      Hs[m]      Hs[-]
     ix    iy  index   (input) (computed) (relative)
  --------------------------------------------------
     6    11     61       1.15       0.00       1.00
     7    11     71       1.12       0.00       1.00
     8    11     81       1.08       0.00       1.00
     9    11     91       1.05       0.00       1.00
    10    11    101       1.01       0.00       1.00
    11    11    111       1.05       0.00       1.00
    12    11    121       1.10       0.00       1.00
    13    11    131       1.16       0.00       1.00
    14    11    141       1.21       0.00       1.00
    15    11    151       1.25       0.00       1.00
    15    10    150       1.27       0.00       1.00
    15     9    149       1.28       0.00       1.00
    15     8    148       1.29       0.00       1.00
    15     7    147       1.30       0.00       1.00
    15     6    146       1.31       0.00       1.00
     1     5      5       1.17       0.00       1.00
    15     5    145       1.31       0.00       1.00
     1     4      4       1.17       0.00       1.00
    15     4    144       1.31       0.00       1.00
     1     3      3       1.18       0.00       1.00
    15     3    143       1.31       0.00       1.00
     1     2      2       1.18       0.00       1.00
    15     2    142       1.31       0.00       1.00
 
 Time of computation ->  20241201.040000      in sec:      14400.
 Boundary data type TPAR processed, time:       14400.
 Boundary data type TPAR processed, time:       14400.
 Boundary data type TPAR processed, time:       14400.
 Boundary data type TPAR processed, time:       14400.
 Boundary data type TPAR processed, time:       14400.
 Boundary data type TPAR processed, time:       14400.
 Boundary data type TPAR processed, time:       14400.
 Boundary data type TPAR processed, time:       14400.
 Boundary data type TPAR processed, time:       14400.
 Boundary data type TPAR processed, time:       14400.
 **  Heading lines  **
 -> 20241201.040000                                                                 
 accuracy OK in   0.00 % of wet grid points ( 99.50 % required)

 accuracy OK in   0.00 % of wet grid points ( 99.50 % required)

 accuracy OK in   0.00 % of wet grid points ( 99.50 % required)

 accuracy OK in   0.00 % of wet grid points ( 99.50 % required)

 accuracy OK in   0.00 % of wet grid points ( 99.50 % required)

  ** WARNING : Differences in wave height at the boundary
 Relative difference between input and computation >=   0.10
                         Hs[m]      Hs[m]      Hs[-]
     ix    iy  index   (input) (computed) (relative)
  --------------------------------------------------
     6    11     61       1.15       0.00       1.00
     7    11     71       1.12       0.00       1.00
     8    11     81       1.08       0.00       1.00
     9    11     91       1.05       0.00       1.00
    10    11    101       1.01       0.00       1.00
    11    11    111       1.05       0.00       1.00
    12    11    121       1.11       0.00       1.00
    13    11    131       1.16       0.00       1.00
    14    11    141       1.22       0.00       1.00
    15    11    151       1.26       0.00       1.00
    15    10    150       1.28       0.00       1.00
    15     9    149       1.29       0.00       1.00
    15     8    148       1.30       0.00       1.00
    15     7    147       1.31       0.00       1.00
    15     6    146       1.32       0.00       1.00
     1     5      5       1.18       0.00       1.00
    15     5    145       1.32       0.00       1.00
     1     4      4       1.18       0.00       1.00
    15     4    144       1.33       0.00       1.00
     1     3      3       1.18       0.00       1.00
    15     3    143       1.33       0.00       1.00
     1     2      2       1.18       0.00       1.00
    15     2    142       1.33       0.00       1.00
 
 Time of computation ->  20241201.050000      in sec:      18000.
 Boundary data type TPAR processed, time:       18000.
 Boundary data type TPAR processed, time:       18000.
 Boundary data type TPAR processed, time:       18000.
 Boundary data type TPAR processed, time:       18000.
 Boundary data type TPAR processed, time:       18000.
 Boundary data type TPAR processed, time:       18000.
 Boundary data type TPAR processed, time:       18000.
 Boundary data type TPAR processed, time:       18000.
 Boundary data type TPAR processed, time:       18000.
 Boundary data type TPAR processed, time:       18000.
 **  Heading lines  **
 -> 20241201.050000                                                                 
 accuracy OK in   0.00 % of wet grid points ( 99.50 % required)

 accuracy OK in   0.00 % of wet grid points ( 99.50 % required)

 accuracy OK in   0.00 % of wet grid points ( 99.50 % required)

 accuracy OK in   0.00 % of wet grid points ( 99.50 % required)

 accuracy OK in   0.00 % of wet grid points ( 99.50 % required)

  ** WARNING : Differences in wave height at the boundary
 Relative difference between input and computation >=   0.10
                         Hs[m]      Hs[m]      Hs[-]
     ix    iy  index   (input) (computed) (relative)
  --------------------------------------------------
     6    11     61       1.15       0.00       1.00
     7    11     71       1.12       0.00       1.00
     8    11     81       1.08       0.00       1.00
     9    11     91       1.05       0.00       1.00
    10    11    101       1.01       0.00       1.00
    11    11    111       1.05       0.00       1.00
    12    11    121       1.11       0.00       1.00
    13    11    131       1.16       0.00       1.00
    14    11    141       1.22       0.00       1.00
    15    11    151       1.26       0.00       1.00
    15    10    150       1.28       0.00       1.00
    15     9    149       1.30       0.00       1.00
    15     8    148       1.32       0.00       1.00
    15     7    147       1.33       0.00       1.00
    15     6    146       1.34       0.00       1.00
     1     5      5       1.18       0.00       1.00
    15     5    145       1.34       0.00       1.00
     1     4      4       1.18       0.00       1.00
    15     4    144       1.33       0.00       1.00
     1     3      3       1.19       0.00       1.00
    15     3    143       1.33       0.00       1.00
     1     2      2       1.19       0.00       1.00
    15     2    142       1.33       0.00       1.00
 
 Time of computation ->  20241201.060000      in sec:      21600.
 Boundary data type TPAR processed, time:       21600.
 Boundary data type TPAR processed, time:       21600.
 Boundary data type TPAR processed, time:       21600.
 Boundary data type TPAR processed, time:       21600.
 Boundary data type TPAR processed, time:       21600.
 Boundary data type TPAR processed, time:       21600.
 Boundary data type TPAR processed, time:       21600.
 Boundary data type TPAR processed, time:       21600.
 Boundary data type TPAR processed, time:       21600.
 Boundary data type TPAR processed, time:       21600.
 **  Heading lines  **
 -> 20241201.060000                                                                 
 accuracy OK in   0.00 % of wet grid points ( 99.50 % required)

 accuracy OK in   0.00 % of wet grid points ( 99.50 % required)

 accuracy OK in   0.00 % of wet grid points ( 99.50 % required)

 accuracy OK in   0.00 % of wet grid points ( 99.50 % required)

 accuracy OK in   0.00 % of wet grid points ( 99.50 % required)

  ** WARNING : Differences in wave height at the boundary
 Relative difference between input and computation >=   0.10
                         Hs[m]      Hs[m]      Hs[-]
     ix    iy  index   (input) (computed) (relative)
  --------------------------------------------------
     6    11     61       1.15       0.00       1.00
     7    11     71       1.11       0.00       1.00
     8    11     81       1.08       0.00       1.00
     9    11     91       1.04       0.00       1.00
    10    11    101       1.00       0.00       1.00
    11    11    111       1.04       0.00       1.00
    12    11    121       1.10       0.00       1.00
    13    11    131       1.16       0.00       1.00
    14    11    141       1.21       0.00       1.00
    15    11    151       1.26       0.00       1.00
    15    10    150       1.28       0.00       1.00
    15     9    149       1.30       0.00       1.00
    15     8    148       1.32       0.00       1.00
    15     7    147       1.33       0.00       1.00
    15     6    146       1.34       0.00       1.00
     1     5      5       1.18       0.00       1.00
    15     5    145       1.34       0.00       1.00
     1     4      4       1.18       0.00       1.00
    15     4    144       1.34       0.00       1.00
     1     3      3       1.18       0.00       1.00
    15     3    143       1.34       0.00       1.00
     1     2      2       1.18       0.00       1.00
    15     2    142       1.34       0.00       1.00
 
 Time of computation ->  20241201.070000      in sec:      25200.
 Boundary data type TPAR processed, time:       25200.
 Boundary data type TPAR processed, time:       25200.
 Boundary data type TPAR processed, time:       25200.
 Boundary data type TPAR processed, time:       25200.
 Boundary data type TPAR processed, time:       25200.
 Boundary data type TPAR processed, time:       25200.
 Boundary data type TPAR processed, time:       25200.
 Boundary data type TPAR processed, time:       25200.
 Boundary data type TPAR processed, time:       25200.
 Boundary data type TPAR processed, time:       25200.
 **  Heading lines  **
 -> 20241201.070000                                                                 
 accuracy OK in   0.00 % of wet grid points ( 99.50 % required)

 accuracy OK in   0.00 % of wet grid points ( 99.50 % required)

 accuracy OK in   0.00 % of wet grid points ( 99.50 % required)

 accuracy OK in   0.00 % of wet grid points ( 99.50 % required)

 accuracy OK in   0.00 % of wet grid points ( 99.50 % required)

  ** WARNING : Differences in wave height at the boundary
 Relative difference between input and computation >=   0.10
                         Hs[m]      Hs[m]      Hs[-]
     ix    iy  index   (input) (computed) (relative)
  --------------------------------------------------
     6    11     61       1.15       0.00       1.00
     7    11     71       1.11       0.00       1.00
     8    11     81       1.08       0.00       1.00
     9    11     91       1.04       0.00       1.00
    10    11    101       1.00       0.00       1.00
    11    11    111       1.04       0.00       1.00
    12    11    121       1.10       0.00       1.00
    13    11    131       1.16       0.00       1.00
    14    11    141       1.21       0.00       1.00
    15    11    151       1.26       0.00       1.00
    15    10    150       1.28       0.00       1.00
    15     9    149       1.30       0.00       1.00
    15     8    148       1.32       0.00       1.00
    15     7    147       1.33       0.00       1.00
    15     6    146       1.34       0.00       1.00
     1     5      5       1.17       0.00       1.00
    15     5    145       1.34       0.00       1.00
     1     4      4       1.17       0.00       1.00
    15     4    144       1.34       0.00       1.00
     1     3      3       1.18       0.00       1.00
    15     3    143       1.34       0.00       1.00
     1     2      2       1.18       0.00       1.00
    15     2    142       1.34       0.00       1.00
 
 Time of computation ->  20241201.080000      in sec:      28800.
 Boundary data type TPAR processed, time:       28800.
 Boundary data type TPAR processed, time:       28800.
 Boundary data type TPAR processed, time:       28800.
 Boundary data type TPAR processed, time:       28800.
 Boundary data type TPAR processed, time:       28800.
 Boundary data type TPAR processed, time:       28800.
 Boundary data type TPAR processed, time:       28800.
 Boundary data type TPAR processed, time:       28800.
 Boundary data type TPAR processed, time:       28800.
 Boundary data type TPAR processed, time:       28800.
 **  Heading lines  **
 -> 20241201.080000                                                                 
 accuracy OK in   0.00 % of wet grid points ( 99.50 % required)

 accuracy OK in   0.00 % of wet grid points ( 99.50 % required)

 accuracy OK in   0.00 % of wet grid points ( 99.50 % required)

 accuracy OK in   0.00 % of wet grid points ( 99.50 % required)

 accuracy OK in   0.00 % of wet grid points ( 99.50 % required)

  ** WARNING : Differences in wave height at the boundary
 Relative difference between input and computation >=   0.10
                         Hs[m]      Hs[m]      Hs[-]
     ix    iy  index   (input) (computed) (relative)
  --------------------------------------------------
     6    11     61       1.14       0.00       1.00
     7    11     71       1.10       0.00       1.00
     8    11     81       1.07       0.00       1.00
     9    11     91       1.03       0.00       1.00
    10    11    101       0.99       0.00       1.00
    11    11    111       1.03       0.00       1.00
    12    11    121       1.09       0.00       1.00
    13    11    131       1.15       0.00       1.00
    14    11    141       1.20       0.00       1.00
    15    11    151       1.25       0.00       1.00
    15    10    150       1.27       0.00       1.00
    15     9    149       1.29       0.00       1.00
    15     8    148       1.31       0.00       1.00
    15     7    147       1.32       0.00       1.00
    15     6    146       1.33       0.00       1.00
     1     5      5       1.16       0.00       1.00
    15     5    145       1.33       0.00       1.00
     1     4      4       1.16       0.00       1.00
    15     4    144       1.33       0.00       1.00
     1     3      3       1.17       0.00       1.00
    15     3    143       1.33       0.00       1.00
     1     2      2       1.17       0.00       1.00
    15     2    142       1.33       0.00       1.00
 
 Time of computation ->  20241201.090000      in sec:      32400.
 Boundary data type TPAR processed, time:       32400.
 Boundary data type TPAR processed, time:       32400.
 Boundary data type TPAR processed, time:       32400.
 Boundary data type TPAR processed, time:       32400.
 Boundary data type TPAR processed, time:       32400.
 Boundary data type TPAR processed, time:       32400.
 Boundary data type TPAR processed, time:       32400.
 Boundary data type TPAR processed, time:       32400.
 Boundary data type TPAR processed, time:       32400.
 Boundary data type TPAR processed, time:       32400.
 **  Heading lines  **
 -> 20241201.090000                                                                 
 accuracy OK in   0.00 % of wet grid points ( 99.50 % required)

 accuracy OK in   0.00 % of wet grid points ( 99.50 % required)

 accuracy OK in   0.00 % of wet grid points ( 99.50 % required)

 accuracy OK in   0.00 % of wet grid points ( 99.50 % required)

 accuracy OK in   0.00 % of wet grid points ( 99.50 % required)

  ** WARNING : Differences in wave height at the boundary
 Relative difference between input and computation >=   0.10
                         Hs[m]      Hs[m]      Hs[-]
     ix    iy  index   (input) (computed) (relative)
  --------------------------------------------------
     6    11     61       1.13       0.00       1.00
     7    11     71       1.10       0.00       1.00
     8    11     81       1.06       0.00       1.00
     9    11     91       1.03       0.00       1.00
    10    11    101       0.99       0.00       1.00
    11    11    111       1.03       0.00       1.00
    12    11    121       1.09       0.00       1.00
    13    11    131       1.14       0.00       1.00
    14    11    141       1.20       0.00       1.00
    15    11    151       1.24       0.00       1.00
    15    10    150       1.26       0.00       1.00
    15     9    149       1.27       0.00       1.00
    15     8    148       1.29       0.00       1.00
    15     7    147       1.30       0.00       1.00
    15     6    146       1.31       0.00       1.00
     1     5      5       1.15       0.00       1.00
    15     5    145       1.31       0.00       1.00
     1     4      4       1.15       0.00       1.00
    15     4    144       1.32       0.00       1.00
     1     3      3       1.16       0.00       1.00
    15     3    143       1.32       0.00       1.00
     1     2      2       1.16       0.00       1.00
    15     2    142       1.32       0.00       1.00
 
 Time of computation ->  20241201.100000      in sec:      36000.
 Boundary data type TPAR processed, time:       36000.
 Boundary data type TPAR processed, time:       36000.
 Boundary data type TPAR processed, time:       36000.
 Boundary data type TPAR processed, time:       36000.
 Boundary data type TPAR processed, time:       36000.
 Boundary data type TPAR processed, time:       36000.
 Boundary data type TPAR processed, time:       36000.
 Boundary data type TPAR processed, time:       36000.
 Boundary data type TPAR processed, time:       36000.
 Boundary data type TPAR processed, time:       36000.
 **  Heading lines  **
 -> 20241201.100000                                                                 
 accuracy OK in   0.00 % of wet grid points ( 99.50 % required)

 accuracy OK in   0.00 % of wet grid points ( 99.50 % required)

 accuracy OK in   0.00 % of wet grid points ( 99.50 % required)

 accuracy OK in   0.00 % of wet grid points ( 99.50 % required)

 accuracy OK in   0.00 % of wet grid points ( 99.50 % required)

  ** WARNING : Differences in wave height at the boundary
 Relative difference between input and computation >=   0.10
                         Hs[m]      Hs[m]      Hs[-]
     ix    iy  index   (input) (computed) (relative)
  --------------------------------------------------
     6    11     61       1.18       0.00       1.00
     7    11     71       1.15       0.00       1.00
     8    11     81       1.11       0.00       1.00
     9    11     91       1.08       0.00       1.00
    10    11    101       1.04       0.00       1.00
    11    11    111       1.08       0.00       1.00
    12    11    121       1.14       0.00       1.00
    13    11    131       1.19       0.00       1.00
    14    11    141       1.25       0.00       1.00
    15    11    151       1.29       0.00       1.00
    15    10    150       1.31       0.00       1.00
    15     9    149       1.33       0.00       1.00
    15     8    148       1.35       0.00       1.00
    15     7    147       1.36       0.00       1.00
    15     6    146       1.37       0.00       1.00
     1     5      5       1.18       0.00       1.00
    15     5    145       1.37       0.00       1.00
     1     4      4       1.18       0.00       1.00
    15     4    144       1.37       0.00       1.00
     1     3      3       1.19       0.00       1.00
    15     3    143       1.37       0.00       1.00
     1     2      2       1.19       0.00       1.00
    15     2    142       1.37       0.00       1.00
 
 Time of computation ->  20241201.110000      in sec:      39600.
 Boundary data type TPAR processed, time:       39600.
 Boundary data type TPAR processed, time:       39600.
 Boundary data type TPAR processed, time:       39600.
 Boundary data type TPAR processed, time:       39600.
 Boundary data type TPAR processed, time:       39600.
 Boundary data type TPAR processed, time:       39600.
 Boundary data type TPAR processed, time:       39600.
 Boundary data type TPAR processed, time:       39600.
 Boundary data type TPAR processed, time:       39600.
 Boundary data type TPAR processed, time:       39600.
 **  Heading lines  **
 -> 20241201.110000                                                                 
 accuracy OK in   0.00 % of wet grid points ( 99.50 % required)

 accuracy OK in   0.00 % of wet grid points ( 99.50 % required)

 accuracy OK in   0.00 % of wet grid points ( 99.50 % required)

 accuracy OK in   0.00 % of wet grid points ( 99.50 % required)

 accuracy OK in   0.00 % of wet grid points ( 99.50 % required)

  ** WARNING : Differences in wave height at the boundary
 Relative difference between input and computation >=   0.10
                         Hs[m]      Hs[m]      Hs[-]
     ix    iy  index   (input) (computed) (relative)
  --------------------------------------------------
     6    11     61       1.14       0.00       1.00
     7    11     71       1.11       0.00       1.00
     8    11     81       1.07       0.00       1.00
     9    11     91       1.04       0.00       1.00
    10    11    101       1.00       0.00       1.00
    11    11    111       1.04       0.00       1.00
    12    11    121       1.09       0.00       1.00
    13    11    131       1.15       0.00       1.00
    14    11    141       1.20       0.00       1.00
    15    11    151       1.24       0.00       1.00
    15    10    150       1.26       0.00       1.00
    15     9    149       1.27       0.00       1.00
    15     8    148       1.29       0.00       1.00
    15     7    147       1.30       0.00       1.00
    15     6    146       1.31       0.00       1.00
     1     5      5       1.15       0.00       1.00
    15     5    145       1.32       0.00       1.00
     1     4      4       1.15       0.00       1.00
    15     4    144       1.32       0.00       1.00
     1     3      3       1.16       0.00       1.00
    15     3    143       1.33       0.00       1.00
     1     2      2       1.16       0.00       1.00
    15     2    142       1.33       0.00       1.00
 
 Time of computation ->  20241201.120000      in sec:      43200.
 Boundary data type TPAR processed, time:       43200.
 Boundary data type TPAR processed, time:       43200.
 Boundary data type TPAR processed, time:       43200.
 Boundary data type TPAR processed, time:       43200.
 Boundary data type TPAR processed, time:       43200.
 Boundary data type TPAR processed, time:       43200.
 Boundary data type TPAR processed, time:       43200.
 Boundary data type TPAR processed, time:       43200.
 Boundary data type TPAR processed, time:       43200.
 Boundary data type TPAR processed, time:       43200.
 **  Heading lines  **
 -> 20241201.120000                                                                 
 accuracy OK in   0.00 % of wet grid points ( 99.50 % required)

 accuracy OK in   0.00 % of wet grid points ( 99.50 % required)

 accuracy OK in   0.00 % of wet grid points ( 99.50 % required)

 accuracy OK in   0.00 % of wet grid points ( 99.50 % required)

 accuracy OK in   0.00 % of wet grid points ( 99.50 % required)

  ** WARNING : Differences in wave height at the boundary
 Relative difference between input and computation >=   0.10
                         Hs[m]      Hs[m]      Hs[-]
     ix    iy  index   (input) (computed) (relative)
  --------------------------------------------------
     6    11     61       1.12       0.00       1.00
     7    11     71       1.09       0.00       1.00
     8    11     81       1.06       0.00       1.00
     9    11     91       1.02       0.00       1.00
    10    11    101       0.99       0.00       1.00
    11    11    111       1.03       0.00       1.00
    12    11    121       1.08       0.00       1.00
    13    11    131       1.14       0.00       1.00
    14    11    141       1.19       0.00       1.00
    15    11    151       1.23       0.00       1.00
    15    10    150       1.25       0.00       1.00
    15     9    149       1.26       0.00       1.00
    15     8    148       1.28       0.00       1.00
    15     7    147       1.29       0.00       1.00
    15     6    146       1.30       0.00       1.00
     1     5      5       1.14       0.00       1.00
    15     5    145       1.31       0.00       1.00
     1     4      4       1.14       0.00       1.00
    15     4    144       1.31       0.00       1.00
     1     3      3       1.15       0.00       1.00
    15     3    143       1.32       0.00       1.00
     1     2      2       1.15       0.00       1.00
    15     2    142       1.32       0.00       1.00
 
 Time of computation ->  20241201.130000      in sec:      46800.
 Boundary data type TPAR processed, time:       46800.
 Boundary data type TPAR processed, time:       46800.
 Boundary data type TPAR processed, time:       46800.
 Boundary data type TPAR processed, time:       46800.
 Boundary data type TPAR processed, time:       46800.
 Boundary data type TPAR processed, time:       46800.
 Boundary data type TPAR processed, time:       46800.
 Boundary data type TPAR processed, time:       46800.
 Boundary data type TPAR processed, time:       46800.
 Boundary data type TPAR processed, time:       46800.
 **  Heading lines  **
 -> 20241201.130000                                                                 
 accuracy OK in   0.00 % of wet grid points ( 99.50 % required)

 accuracy OK in   0.00 % of wet grid points ( 99.50 % required)

 accuracy OK in   0.00 % of wet grid points ( 99.50 % required)

 accuracy OK in   0.00 % of wet grid points ( 99.50 % required)

 accuracy OK in   0.00 % of wet grid points ( 99.50 % required)

  ** WARNING : Differences in wave height at the boundary
 Relative difference between input and computation >=   0.10
                         Hs[m]      Hs[m]      Hs[-]
     ix    iy  index   (input) (computed) (relative)
  --------------------------------------------------
     6    11     61       1.11       0.00       1.00
     7    11     71       1.08       0.00       1.00
     8    11     81       1.05       0.00       1.00
     9    11     91       1.01       0.00       1.00
    10    11    101       0.98       0.00       1.00
    11    11    111       1.02       0.00       1.00
    12    11    121       1.07       0.00       1.00
    13    11    131       1.13       0.00       1.00
    14    11    141       1.18       0.00       1.00
    15    11    151       1.22       0.00       1.00
    15    10    150       1.24       0.00       1.00
    15     9    149       1.25       0.00       1.00
    15     8    148       1.26       0.00       1.00
    15     7    147       1.27       0.00       1.00
    15     6    146       1.28       0.00       1.00
     1     5      5       1.13       0.00       1.00
    15     5    145       1.29       0.00       1.00
     1     4      4       1.13       0.00       1.00
    15     4    144       1.29       0.00       1.00
     1     3      3       1.14       0.00       1.00
    15     3    143       1.30       0.00       1.00
     1     2      2       1.14       0.00       1.00
    15     2    142       1.30       0.00       1.00
 
 Time of computation ->  20241201.140000      in sec:      50400.
 Boundary data type TPAR processed, time:       50400.
 Boundary data type TPAR processed, time:       50400.
 Boundary data type TPAR processed, time:       50400.
 Boundary data type TPAR processed, time:       50400.
 Boundary data type TPAR processed, time:       50400.
 Boundary data type TPAR processed, time:       50400.
 Boundary data type TPAR processed, time:       50400.
 Boundary data type TPAR processed, time:       50400.
 Boundary data type TPAR processed, time:       50400.
 Boundary data type TPAR processed, time:       50400.
 **  Heading lines  **
 -> 20241201.140000                                                                 
 accuracy OK in   0.00 % of wet grid points ( 99.50 % required)

 accuracy OK in   0.00 % of wet grid points ( 99.50 % required)

 accuracy OK in   0.00 % of wet grid points ( 99.50 % required)

 accuracy OK in   0.00 % of wet grid points ( 99.50 % required)

 accuracy OK in   0.00 % of wet grid points ( 99.50 % required)

  ** WARNING : Differences in wave height at the boundary
 Relative difference between input and computation >=   0.10
                         Hs[m]      Hs[m]      Hs[-]
     ix    iy  index   (input) (computed) (relative)
  --------------------------------------------------
     6    11     61       1.10       0.00       1.00
     7    11     71       1.07       0.00       1.00
     8    11     81       1.04       0.00       1.00
     9    11     91       1.00       0.00       1.00
    10    11    101       0.97       0.00       1.00
    11    11    111       1.01       0.00       1.00
    12    11    121       1.06       0.00       1.00
    13    11    131       1.11       0.00       1.00
    14    11    141       1.16       0.00       1.00
    15    11    151       1.20       0.00       1.00
    15    10    150       1.22       0.00       1.00
    15     9    149       1.23       0.00       1.00
    15     8    148       1.25       0.00       1.00
    15     7    147       1.26       0.00       1.00
    15     6    146       1.27       0.00       1.00
     1     5      5       1.12       0.00       1.00
    15     5    145       1.28       0.00       1.00
     1     4      4       1.12       0.00       1.00
    15     4    144       1.28       0.00       1.00
     1     3      3       1.13       0.00       1.00
    15     3    143       1.29       0.00       1.00
     1     2      2       1.13       0.00       1.00
    15     2    142       1.29       0.00       1.00
 
 Time of computation ->  20241201.150000      in sec:      54000.
 Boundary data type TPAR processed, time:       54000.
 Boundary data type TPAR processed, time:       54000.
 Boundary data type TPAR processed, time:       54000.
 Boundary data type TPAR processed, time:       54000.
 Boundary data type TPAR processed, time:       54000.
 Boundary data type TPAR processed, time:       54000.
 Boundary data type TPAR processed, time:       54000.
 Boundary data type TPAR processed, time:       54000.
 Boundary data type TPAR processed, time:       54000.
 Boundary data type TPAR processed, time:       54000.
 **  Heading lines  **
 -> 20241201.150000                                                                 
 accuracy OK in   0.00 % of wet grid points ( 99.50 % required)

 accuracy OK in   0.00 % of wet grid points ( 99.50 % required)

 accuracy OK in   0.00 % of wet grid points ( 99.50 % required)

 accuracy OK in   0.00 % of wet grid points ( 99.50 % required)

 accuracy OK in   0.00 % of wet grid points ( 99.50 % required)

  ** WARNING : Differences in wave height at the boundary
 Relative difference between input and computation >=   0.10
                         Hs[m]      Hs[m]      Hs[-]
     ix    iy  index   (input) (computed) (relative)
  --------------------------------------------------
     6    11     61       1.09       0.00       1.00
     7    11     71       1.06       0.00       1.00
     8    11     81       1.03       0.00       1.00
     9    11     91       1.00       0.00       1.00
    10    11    101       0.97       0.00       1.00
    11    11    111       1.00       0.00       1.00
    12    11    121       1.05       0.00       1.00
    13    11    131       1.10       0.00       1.00
    14    11    141       1.15       0.00       1.00
    15    11    151       1.19       0.00       1.00
    15    10    150       1.21       0.00       1.00
    15     9    149       1.22       0.00       1.00
    15     8    148       1.23       0.00       1.00
    15     7    147       1.24       0.00       1.00
    15     6    146       1.25       0.00       1.00
     1     5      5       1.11       0.00       1.00
    15     5    145       1.26       0.00       1.00
     1     4      4       1.11       0.00       1.00
    15     4    144       1.26       0.00       1.00
     1     3      3       1.12       0.00       1.00
    15     3    143       1.27       0.00       1.00
     1     2      2       1.12       0.00       1.00
    15     2    142       1.27       0.00       1.00
 
 Time of computation ->  20241201.160000      in sec:      57600.
 Boundary data type TPAR processed, time:       57600.
 Boundary data type TPAR processed, time:       57600.
 Boundary data type TPAR processed, time:       57600.
 Boundary data type TPAR processed, time:       57600.
 Boundary data type TPAR processed, time:       57600.
 Boundary data type TPAR processed, time:       57600.
 Boundary data type TPAR processed, time:       57600.
 Boundary data type TPAR processed, time:       57600.
 Boundary data type TPAR processed, time:       57600.
 Boundary data type TPAR processed, time:       57600.
 **  Heading lines  **
 -> 20241201.160000                                                                 
 accuracy OK in   0.00 % of wet grid points ( 99.50 % required)

 accuracy OK in   0.00 % of wet grid points ( 99.50 % required)

 accuracy OK in   0.00 % of wet grid points ( 99.50 % required)

 accuracy OK in   0.00 % of wet grid points ( 99.50 % required)

 accuracy OK in   0.00 % of wet grid points ( 99.50 % required)

  ** WARNING : Differences in wave height at the boundary
 Relative difference between input and computation >=   0.10
                         Hs[m]      Hs[m]      Hs[-]
     ix    iy  index   (input) (computed) (relative)
  --------------------------------------------------
     6    11     61       1.08       0.00       1.00
     7    11     71       1.05       0.00       1.00
     8    11     81       1.02       0.00       1.00
     9    11     91       0.99       0.00       1.00
    10    11    101       0.96       0.00       1.00
    11    11    111       0.99       0.00       1.00
    12    11    121       1.04       0.00       1.00
    13    11    131       1.09       0.00       1.00
    14    11    141       1.14       0.00       1.00
    15    11    151       1.18       0.00       1.00
    15    10    150       1.20       0.00       1.00
    15     9    149       1.21       0.00       1.00
    15     8    148       1.22       0.00       1.00
    15     7    147       1.23       0.00       1.00
    15     6    146       1.24       0.00       1.00
     1     5      5       1.10       0.00       1.00
    15     5    145       1.24       0.00       1.00
     1     4      4       1.10       0.00       1.00
    15     4    144       1.25       0.00       1.00
     1     3      3       1.11       0.00       1.00
    15     3    143       1.25       0.00       1.00
     1     2      2       1.11       0.00       1.00
    15     2    142       1.25       0.00       1.00
 
 Time of computation ->  20241201.170000      in sec:      61200.
 Boundary data type TPAR processed, time:       61200.
 Boundary data type TPAR processed, time:       61200.
 Boundary data type TPAR processed, time:       61200.
 Boundary data type TPAR processed, time:       61200.
 Boundary data type TPAR processed, time:       61200.
 Boundary data type TPAR processed, time:       61200.
 Boundary data type TPAR processed, time:       61200.
 Boundary data type TPAR processed, time:       61200.
 Boundary data type TPAR processed, time:       61200.
 Boundary data type TPAR processed, time:       61200.
 **  Heading lines  **
 -> 20241201.170000                                                                 
 accuracy OK in   0.00 % of wet grid points ( 99.50 % required)

 accuracy OK in   0.00 % of wet grid points ( 99.50 % required)

 accuracy OK in   0.00 % of wet grid points ( 99.50 % required)

 accuracy OK in   0.00 % of wet grid points ( 99.50 % required)

 accuracy OK in   0.00 % of wet grid points ( 99.50 % required)

  ** WARNING : Differences in wave height at the boundary
 Relative difference between input and computation >=   0.10
                         Hs[m]      Hs[m]      Hs[-]
     ix    iy  index   (input) (computed) (relative)
  --------------------------------------------------
     6    11     61       1.07       0.00       1.00
     7    11     71       1.05       0.00       1.00
     8    11     81       1.02       0.00       1.00
     9    11     91       0.99       0.00       1.00
    10    11    101       0.96       0.00       1.00
    11    11    111       0.99       0.00       1.00
    12    11    121       1.04       0.00       1.00
    13    11    131       1.09       0.00       1.00
    14    11    141       1.13       0.00       1.00
    15    11    151       1.17       0.00       1.00
    15    10    150       1.19       0.00       1.00
    15     9    149       1.20       0.00       1.00
    15     8    148       1.21       0.00       1.00
    15     7    147       1.22       0.00       1.00
    15     6    146       1.23       0.00       1.00
     1     5      5       1.09       0.00       1.00
    15     5    145       1.23       0.00       1.00
     1     4      4       1.09       0.00       1.00
    15     4    144       1.24       0.00       1.00
     1     3      3       1.10       0.00       1.00
    15     3    143       1.24       0.00       1.00
     1     2      2       1.10       0.00       1.00
    15     2    142       1.24       0.00       1.00
 
 Time of computation ->  20241201.180000      in sec:      64800.
 Boundary data type TPAR processed, time:       64800.
 Boundary data type TPAR processed, time:       64800.
 Boundary data type TPAR processed, time:       64800.
 Boundary data type TPAR processed, time:       64800.
 Boundary data type TPAR processed, time:       64800.
 Boundary data type TPAR processed, time:       64800.
 Boundary data type TPAR processed, time:       64800.
 Boundary data type TPAR processed, time:       64800.
 Boundary data type TPAR processed, time:       64800.
 Boundary data type TPAR processed, time:       64800.
 **  Heading lines  **
 -> 20241201.180000                                                                 
 accuracy OK in   0.00 % of wet grid points ( 99.50 % required)

 accuracy OK in   0.00 % of wet grid points ( 99.50 % required)

 accuracy OK in   0.00 % of wet grid points ( 99.50 % required)

 accuracy OK in   0.00 % of wet grid points ( 99.50 % required)

 accuracy OK in   0.00 % of wet grid points ( 99.50 % required)

  ** WARNING : Differences in wave height at the boundary
 Relative difference between input and computation >=   0.10
                         Hs[m]      Hs[m]      Hs[-]
     ix    iy  index   (input) (computed) (relative)
  --------------------------------------------------
     6    11     61       1.08       0.00       1.00
     7    11     71       1.05       0.00       1.00
     8    11     81       1.02       0.00       1.00
     9    11     91       0.99       0.00       1.00
    10    11    101       0.96       0.00       1.00
    11    11    111       0.99       0.00       1.00
    12    11    121       1.04       0.00       1.00
    13    11    131       1.09       0.00       1.00
    14    11    141       1.13       0.00       1.00
    15    11    151       1.17       0.00       1.00
    15    10    150       1.18       0.00       1.00
    15     9    149       1.19       0.00       1.00
    15     8    148       1.20       0.00       1.00
    15     7    147       1.22       0.00       1.00
    15     6    146       1.22       0.00       1.00
     1     5      5       1.09       0.00       1.00
    15     5    145       1.23       0.00       1.00
     1     4      4       1.09       0.00       1.00
    15     4    144       1.23       0.00       1.00
     1     3      3       1.10       0.00       1.00
    15     3    143       1.24       0.00       1.00
     1     2      2       1.10       0.00       1.00
    15     2    142       1.24       0.00       1.00
 
 Time of computation ->  20241201.190000      in sec:      68400.
 Boundary data type TPAR processed, time:       68400.
 Boundary data type TPAR processed, time:       68400.
 Boundary data type TPAR processed, time:       68400.
 Boundary data type TPAR processed, time:       68400.
 Boundary data type TPAR processed, time:       68400.
 Boundary data type TPAR processed, time:       68400.
 Boundary data type TPAR processed, time:       68400.
 Boundary data type TPAR processed, time:       68400.
 Boundary data type TPAR processed, time:       68400.
 Boundary data type TPAR processed, time:       68400.
 **  Heading lines  **
 -> 20241201.190000                                                                 
 accuracy OK in   0.00 % of wet grid points ( 99.50 % required)

 accuracy OK in   0.00 % of wet grid points ( 99.50 % required)

 accuracy OK in   0.00 % of wet grid points ( 99.50 % required)

 accuracy OK in   0.00 % of wet grid points ( 99.50 % required)

 accuracy OK in   0.00 % of wet grid points ( 99.50 % required)

  ** WARNING : Differences in wave height at the boundary
 Relative difference between input and computation >=   0.10
                         Hs[m]      Hs[m]      Hs[-]
     ix    iy  index   (input) (computed) (relative)
  --------------------------------------------------
     6    11     61       1.09       0.00       1.00
     7    11     71       1.06       0.00       1.00
     8    11     81       1.03       0.00       1.00
     9    11     91       1.00       0.00       1.00
    10    11    101       0.97       0.00       1.00
    11    11    111       1.00       0.00       1.00
    12    11    121       1.05       0.00       1.00
    13    11    131       1.09       0.00       1.00
    14    11    141       1.13       0.00       1.00
    15    11    151       1.17       0.00       1.00
    15    10    150       1.18       0.00       1.00
    15     9    149       1.19       0.00       1.00
    15     8    148       1.20       0.00       1.00
    15     7    147       1.22       0.00       1.00
    15     6    146       1.22       0.00       1.00
     1     5      5       1.09       0.00       1.00
    15     5    145       1.23       0.00       1.00
     1     4      4       1.09       0.00       1.00
    15     4    144       1.23       0.00       1.00
     1     3      3       1.10       0.00       1.00
    15     3    143       1.24       0.00       1.00
     1     2      2       1.10       0.00       1.00
    15     2    142       1.24       0.00       1.00
 
 Time of computation ->  20241201.200000      in sec:      72000.
 Boundary data type TPAR processed, time:       72000.
 Boundary data type TPAR processed, time:       72000.
 Boundary data type TPAR processed, time:       72000.
 Boundary data type TPAR processed, time:       72000.
 Boundary data type TPAR processed, time:       72000.
 Boundary data type TPAR processed, time:       72000.
 Boundary data type TPAR processed, time:       72000.
 Boundary data type TPAR processed, time:       72000.
 Boundary data type TPAR processed, time:       72000.
 Boundary data type TPAR processed, time:       72000.
 **  Heading lines  **
 -> 20241201.200000                                                                 
 accuracy OK in   0.00 % of wet grid points ( 99.50 % required)

 accuracy OK in   0.00 % of wet grid points ( 99.50 % required)

 accuracy OK in   0.00 % of wet grid points ( 99.50 % required)

 accuracy OK in   0.00 % of wet grid points ( 99.50 % required)

 accuracy OK in   0.00 % of wet grid points ( 99.50 % required)

  ** WARNING : Differences in wave height at the boundary
 Relative difference between input and computation >=   0.10
                         Hs[m]      Hs[m]      Hs[-]
     ix    iy  index   (input) (computed) (relative)
  --------------------------------------------------
     6    11     61       1.11       0.00       1.00
     7    11     71       1.08       0.00       1.00
     8    11     81       1.05       0.00       1.00
     9    11     91       1.02       0.00       1.00
    10    11    101       0.99       0.00       1.00
    11    11    111       1.02       0.00       1.00
    12    11    121       1.07       0.00       1.00
    13    11    131       1.11       0.00       1.00
    14    11    141       1.15       0.00       1.00
    15    11    151       1.19       0.00       1.00
    15    10    150       1.20       0.00       1.00
    15     9    149       1.20       0.00       1.00
    15     8    148       1.21       0.00       1.00
    15     7    147       1.22       0.00       1.00
    15     6    146       1.22       0.00       1.00
     1     5      5       1.09       0.00       1.00
    15     5    145       1.23       0.00       1.00
     1     4      4       1.09       0.00       1.00
    15     4    144       1.23       0.00       1.00
     1     3      3       1.10       0.00       1.00
    15     3    143       1.24       0.00       1.00
     1     2      2       1.10       0.00       1.00
    15     2    142       1.24       0.00       1.00
 
 Time of computation ->  20241201.210000      in sec:      75600.
 Boundary data type TPAR processed, time:       75600.
 Boundary data type TPAR processed, time:       75600.
 Boundary data type TPAR processed, time:       75600.
 Boundary data type TPAR processed, time:       75600.
 Boundary data type TPAR processed, time:       75600.
 Boundary data type TPAR processed, time:       75600.
 Boundary data type TPAR processed, time:       75600.
 Boundary data type TPAR processed, time:       75600.
 Boundary data type TPAR processed, time:       75600.
 Boundary data type TPAR processed, time:       75600.
 **  Heading lines  **
 -> 20241201.210000                                                                 
 accuracy OK in   0.00 % of wet grid points ( 99.50 % required)

 accuracy OK in   0.00 % of wet grid points ( 99.50 % required)

 accuracy OK in   0.00 % of wet grid points ( 99.50 % required)

 accuracy OK in   0.00 % of wet grid points ( 99.50 % required)

 accuracy OK in   0.00 % of wet grid points ( 99.50 % required)

  ** WARNING : Differences in wave height at the boundary
 Relative difference between input and computation >=   0.10
                         Hs[m]      Hs[m]      Hs[-]
     ix    iy  index   (input) (computed) (relative)
  --------------------------------------------------
     6    11     61       1.12       0.00       1.00
     7    11     71       1.09       0.00       1.00
     8    11     81       1.06       0.00       1.00
     9    11     91       1.03       0.00       1.00
    10    11    101       1.00       0.00       1.00
    11    11    111       1.03       0.00       1.00
    12    11    121       1.08       0.00       1.00
    13    11    131       1.12       0.00       1.00
    14    11    141       1.16       0.00       1.00
    15    11    151       1.20       0.00       1.00
    15    10    150       1.21       0.00       1.00
    15     9    149       1.22       0.00       1.00
    15     8    148       1.22       0.00       1.00
    15     7    147       1.23       0.00       1.00
    15     6    146       1.23       0.00       1.00
     1     5      5       1.09       0.00       1.00
    15     5    145       1.23       0.00       1.00
     1     4      4       1.09       0.00       1.00
    15     4    144       1.23       0.00       1.00
     1     3      3       1.09       0.00       1.00
    15     3    143       1.24       0.00       1.00
     1     2      2       1.09       0.00       1.00
    15     2    142       1.24       0.00       1.00
 
 Time of computation ->  20241201.220000      in sec:      79200.
 Boundary data type TPAR processed, time:       79200.
 Boundary data type TPAR processed, time:       79200.
 Boundary data type TPAR processed, time:       79200.
 Boundary data type TPAR processed, time:       79200.
 Boundary data type TPAR processed, time:       79200.
 Boundary data type TPAR processed, time:       79200.
 Boundary data type TPAR processed, time:       79200.
 Boundary data type TPAR processed, time:       79200.
 Boundary data type TPAR processed, time:       79200.
 Boundary data type TPAR processed, time:       79200.
 **  Heading lines  **
 -> 20241201.220000                                                                 
 accuracy OK in   0.00 % of wet grid points ( 99.50 % required)

 accuracy OK in   0.00 % of wet grid points ( 99.50 % required)

 accuracy OK in   0.00 % of wet grid points ( 99.50 % required)

 accuracy OK in   0.00 % of wet grid points ( 99.50 % required)

 accuracy OK in   0.00 % of wet grid points ( 99.50 % required)

  ** WARNING : Differences in wave height at the boundary
 Relative difference between input and computation >=   0.10
                         Hs[m]      Hs[m]      Hs[-]
     ix    iy  index   (input) (computed) (relative)
  --------------------------------------------------
     6    11     61       1.10       0.00       1.00
     7    11     71       1.08       0.00       1.00
     8    11     81       1.05       0.00       1.00
     9    11     91       1.02       0.00       1.00
    10    11    101       0.99       0.00       1.00
    11    11    111       1.02       0.00       1.00
    12    11    121       1.07       0.00       1.00
    13    11    131       1.11       0.00       1.00
    14    11    141       1.15       0.00       1.00
    15    11    151       1.19       0.00       1.00
    15    10    150       1.20       0.00       1.00
    15     9    149       1.21       0.00       1.00
    15     8    148       1.21       0.00       1.00
    15     7    147       1.22       0.00       1.00
    15     6    146       1.22       0.00       1.00
     1     5      5       1.08       0.00       1.00
    15     5    145       1.22       0.00       1.00
     1     4      4       1.08       0.00       1.00
    15     4    144       1.22       0.00       1.00
     1     3      3       1.09       0.00       1.00
    15     3    143       1.23       0.00       1.00
     1     2      2       1.09       0.00       1.00
    15     2    142       1.23       0.00       1.00
 
 Time of computation ->  20241201.230000      in sec:      82800.
 Boundary data type TPAR processed, time:       82800.
 Boundary data type TPAR processed, time:       82800.
 Boundary data type TPAR processed, time:       82800.
 Boundary data type TPAR processed, time:       82800.
 Boundary data type TPAR processed, time:       82800.
 Boundary data type TPAR processed, time:       82800.
 Boundary data type TPAR processed, time:       82800.
 Boundary data type TPAR processed, time:       82800.
 Boundary data type TPAR processed, time:       82800.
 Boundary data type TPAR processed, time:       82800.
 **  Heading lines  **
 -> 20241201.230000                                                                 
 accuracy OK in   0.00 % of wet grid points ( 99.50 % required)

 accuracy OK in   0.00 % of wet grid points ( 99.50 % required)

 accuracy OK in   0.00 % of wet grid points ( 99.50 % required)

 accuracy OK in   0.00 % of wet grid points ( 99.50 % required)

 accuracy OK in   0.00 % of wet grid points ( 99.50 % required)

  ** WARNING : Differences in wave height at the boundary
 Relative difference between input and computation >=   0.10
                         Hs[m]      Hs[m]      Hs[-]
     ix    iy  index   (input) (computed) (relative)
  --------------------------------------------------
     6    11     61       1.09       0.00       1.00
     7    11     71       1.06       0.00       1.00
     8    11     81       1.03       0.00       1.00
     9    11     91       1.00       0.00       1.00
    10    11    101       0.97       0.00       1.00
    11    11    111       1.00       0.00       1.00
    12    11    121       1.05       0.00       1.00
    13    11    131       1.09       0.00       1.00
    14    11    141       1.13       0.00       1.00
    15    11    151       1.17       0.00       1.00
    15    10    150       1.18       0.00       1.00
    15     9    149       1.19       0.00       1.00
    15     8    148       1.20       0.00       1.00
    15     7    147       1.21       0.00       1.00
    15     6    146       1.21       0.00       1.00
     1     5      5       1.07       0.00       1.00
    15     5    145       1.21       0.00       1.00
     1     4      4       1.07       0.00       1.00
    15     4    144       1.22       0.00       1.00
     1     3      3       1.08       0.00       1.00
    15     3    143       1.22       0.00       1.00
     1     2      2       1.08       0.00       1.00
    15     2    142       1.23       0.00       1.00
 
 Time of computation ->  20241202.000000      in sec:      86400.
 Boundary data type TPAR processed, time:       86400.
 Boundary data type TPAR processed, time:       86400.
 Boundary data type TPAR processed, time:       86400.
 Boundary data type TPAR processed, time:       86400.
 Boundary data type TPAR processed, time:       86400.
 Boundary data type TPAR processed, time:       86400.
 Boundary data type TPAR processed, time:       86400.
 Boundary data type TPAR processed, time:       86400.
 Boundary data type TPAR processed, time:       86400.
 Boundary data type TPAR processed, time:       86400.
 **  Heading lines  **
 -> 20241202.000000                                                                 
 accuracy OK in   0.00 % of wet grid points ( 99.50 % required)

 accuracy OK in   0.00 % of wet grid points ( 99.50 % required)

 accuracy OK in   0.00 % of wet grid points ( 99.50 % required)

 accuracy OK in   0.00 % of wet grid points ( 99.50 % required)

 accuracy OK in   0.00 % of wet grid points ( 99.50 % required)

  ** WARNING : Differences in wave height at the boundary
 Relative difference between input and computation >=   0.10
                         Hs[m]      Hs[m]      Hs[-]
     ix    iy  index   (input) (computed) (relative)
  --------------------------------------------------
     6    11     61       1.08       0.00       1.00
     7    11     71       1.05       0.00       1.00
     8    11     81       1.02       0.00       1.00
     9    11     91       0.99       0.00       1.00
    10    11    101       0.96       0.00       1.00
    11    11    111       0.99       0.00       1.00
    12    11    121       1.04       0.00       1.00
    13    11    131       1.09       0.00       1.00
    14    11    141       1.13       0.00       1.00
    15    11    151       1.17       0.00       1.00
    15    10    150       1.18       0.00       1.00
    15     9    149       1.19       0.00       1.00
    15     8    148       1.20       0.00       1.00
    15     7    147       1.21       0.00       1.00
    15     6    146       1.21       0.00       1.00
     1     5      5       1.07       0.00       1.00
    15     5    145       1.21       0.00       1.00
     1     4      4       1.07       0.00       1.00
    15     4    144       1.21       0.00       1.00
     1     3      3       1.07       0.00       1.00
    15     3    143       1.22       0.00       1.00
     1     2      2       1.07       0.00       1.00
    15     2    142       1.22       0.00       1.00
 
 Time of computation ->  20241202.010000      in sec:      90000.
 Boundary data type TPAR processed, time:       90000.
 Boundary data type TPAR processed, time:       90000.
 Boundary data type TPAR processed, time:       90000.
 Boundary data type TPAR processed, time:       90000.
 Boundary data type TPAR processed, time:       90000.
 Boundary data type TPAR processed, time:       90000.
 Boundary data type TPAR processed, time:       90000.
 Boundary data type TPAR processed, time:       90000.
 Boundary data type TPAR processed, time:       90000.
 Boundary data type TPAR processed, time:       90000.
 **  Heading lines  **
 -> 20241202.010000                                                                 
 accuracy OK in   0.00 % of wet grid points ( 99.50 % required)

 accuracy OK in   0.00 % of wet grid points ( 99.50 % required)

 accuracy OK in   0.00 % of wet grid points ( 99.50 % required)

 accuracy OK in   0.00 % of wet grid points ( 99.50 % required)

 accuracy OK in   0.00 % of wet grid points ( 99.50 % required)

  ** WARNING : Differences in wave height at the boundary
 Relative difference between input and computation >=   0.10
                         Hs[m]      Hs[m]      Hs[-]
     ix    iy  index   (input) (computed) (relative)
  --------------------------------------------------
     6    11     61       1.06       0.00       1.00
     7    11     71       1.04       0.00       1.00
     8    11     81       1.01       0.00       1.00
     9    11     91       0.98       0.00       1.00
    10    11    101       0.95       0.00       1.00
    11    11    111       0.98       0.00       1.00
    12    11    121       1.03       0.00       1.00
    13    11    131       1.08       0.00       1.00
    14    11    141       1.12       0.00       1.00
    15    11    151       1.16       0.00       1.00
    15    10    150       1.17       0.00       1.00
    15     9    149       1.18       0.00       1.00
    15     8    148       1.19       0.00       1.00
    15     7    147       1.20       0.00       1.00
    15     6    146       1.20       0.00       1.00
     1     5      5       1.06       0.00       1.00
    15     5    145       1.21       0.00       1.00
     1     4      4       1.06       0.00       1.00
    15     4    144       1.21       0.00       1.00
     1     3      3       1.07       0.00       1.00
    15     3    143       1.22       0.00       1.00
     1     2      2       1.07       0.00       1.00
    15     2    142       1.22       0.00       1.00
 
 Time of computation ->  20241202.020000      in sec:      93600.
 Boundary data type TPAR processed, time:       93600.
 Boundary data type TPAR processed, time:       93600.
 Boundary data type TPAR processed, time:       93600.
 Boundary data type TPAR processed, time:       93600.
 Boundary data type TPAR processed, time:       93600.
 Boundary data type TPAR processed, time:       93600.
 Boundary data type TPAR processed, time:       93600.
 Boundary data type TPAR processed, time:       93600.
 Boundary data type TPAR processed, time:       93600.
 Boundary data type TPAR processed, time:       93600.
 **  Heading lines  **
 -> 20241202.020000                                                                 
 accuracy OK in   0.00 % of wet grid points ( 99.50 % required)

 accuracy OK in   0.00 % of wet grid points ( 99.50 % required)

 accuracy OK in   0.00 % of wet grid points ( 99.50 % required)

 accuracy OK in   0.00 % of wet grid points ( 99.50 % required)

 accuracy OK in   0.00 % of wet grid points ( 99.50 % required)

  ** WARNING : Differences in wave height at the boundary
 Relative difference between input and computation >=   0.10
                         Hs[m]      Hs[m]      Hs[-]
     ix    iy  index   (input) (computed) (relative)
  --------------------------------------------------
     6    11     61       1.05       0.00       1.00
     7    11     71       1.03       0.00       1.00
     8    11     81       1.00       0.00       1.00
     9    11     91       0.97       0.00       1.00
    10    11    101       0.94       0.00       1.00
    11    11    111       0.97       0.00       1.00
    12    11    121       1.02       0.00       1.00
    13    11    131       1.07       0.00       1.00
    14    11    141       1.11       0.00       1.00
    15    11    151       1.15       0.00       1.00
    15    10    150       1.16       0.00       1.00
    15     9    149       1.17       0.00       1.00
    15     8    148       1.18       0.00       1.00
    15     7    147       1.20       0.00       1.00
    15     6    146       1.20       0.00       1.00
     1     5      5       1.06       0.00       1.00
    15     5    145       1.21       0.00       1.00
     1     4      4       1.06       0.00       1.00
    15     4    144       1.21       0.00       1.00
     1     3      3       1.06       0.00       1.00
    15     3    143       1.22       0.00       1.00
     1     2      2       1.06       0.00       1.00
    15     2    142       1.22       0.00       1.00
 
 Time of computation ->  20241202.030000      in sec:      97200.
 Boundary data type TPAR processed, time:       97200.
 Boundary data type TPAR processed, time:       97200.
 Boundary data type TPAR processed, time:       97200.
 Boundary data type TPAR processed, time:       97200.
 Boundary data type TPAR processed, time:       97200.
 Boundary data type TPAR processed, time:       97200.
 Boundary data type TPAR processed, time:       97200.
 Boundary data type TPAR processed, time:       97200.
 Boundary data type TPAR processed, time:       97200.
 Boundary data type TPAR processed, time:       97200.
 **  Heading lines  **
 -> 20241202.030000                                                                 
 accuracy OK in   0.00 % of wet grid points ( 99.50 % required)

 accuracy OK in   0.00 % of wet grid points ( 99.50 % required)

 accuracy OK in   0.00 % of wet grid points ( 99.50 % required)

 accuracy OK in   0.00 % of wet grid points ( 99.50 % required)

 accuracy OK in   0.00 % of wet grid points ( 99.50 % required)

  ** WARNING : Differences in wave height at the boundary
 Relative difference between input and computation >=   0.10
                         Hs[m]      Hs[m]      Hs[-]
     ix    iy  index   (input) (computed) (relative)
  --------------------------------------------------
     6    11     61       1.04       0.00       1.00
     7    11     71       1.02       0.00       1.00
     8    11     81       0.99       0.00       1.00
     9    11     91       0.96       0.00       1.00
    10    11    101       0.93       0.00       1.00
    11    11    111       0.96       0.00       1.00
    12    11    121       1.01       0.00       1.00
    13    11    131       1.06       0.00       1.00
    14    11    141       1.11       0.00       1.00
    15    11    151       1.15       0.00       1.00
    15    10    150       1.16       0.00       1.00
    15     9    149       1.17       0.00       1.00
    15     8    148       1.18       0.00       1.00
    15     7    147       1.20       0.00       1.00
    15     6    146       1.20       0.00       1.00
     1     5      5       1.05       0.00       1.00
    15     5    145       1.21       0.00       1.00
     1     4      4       1.05       0.00       1.00
    15     4    144       1.21       0.00       1.00
     1     3      3       1.06       0.00       1.00
    15     3    143       1.22       0.00       1.00
     1     2      2       1.06       0.00       1.00
    15     2    142       1.22       0.00       1.00
 
 Time of computation ->  20241202.040000      in sec:     100800.
 Boundary data type TPAR processed, time:      100800.
 Boundary data type TPAR processed, time:      100800.
 Boundary data type TPAR processed, time:      100800.
 Boundary data type TPAR processed, time:      100800.
 Boundary data type TPAR processed, time:      100800.
 Boundary data type TPAR processed, time:      100800.
 Boundary data type TPAR processed, time:      100800.
 Boundary data type TPAR processed, time:      100800.
 Boundary data type TPAR processed, time:      100800.
 Boundary data type TPAR processed, time:      100800.
 **  Heading lines  **
 -> 20241202.040000                                                                 
 accuracy OK in   0.00 % of wet grid points ( 99.50 % required)

 accuracy OK in   0.00 % of wet grid points ( 99.50 % required)

 accuracy OK in   0.00 % of wet grid points ( 99.50 % required)

 accuracy OK in   0.00 % of wet grid points ( 99.50 % required)

 accuracy OK in   0.00 % of wet grid points ( 99.50 % required)

  ** WARNING : Differences in wave height at the boundary
 Relative difference between input and computation >=   0.10
                         Hs[m]      Hs[m]      Hs[-]
     ix    iy  index   (input) (computed) (relative)
  --------------------------------------------------
     6    11     61       1.04       0.00       1.00
     7    11     71       1.01       0.00       1.00
     8    11     81       0.98       0.00       1.00
     9    11     91       0.95       0.00       1.00
    10    11    101       0.92       0.00       1.00
    11    11    111       0.95       0.00       1.00
    12    11    121       1.00       0.00       1.00
    13    11    131       1.05       0.00       1.00
    14    11    141       1.10       0.00       1.00
    15    11    151       1.14       0.00       1.00
    15    10    150       1.16       0.00       1.00
    15     9    149       1.17       0.00       1.00
    15     8    148       1.18       0.00       1.00
    15     7    147       1.19       0.00       1.00
    15     6    146       1.20       0.00       1.00
[...]
 Boundary data type TPAR processed, time:     2566800.
 Boundary data type TPAR processed, time:     2566800.
 Boundary data type TPAR processed, time:     2566800.
 Boundary data type TPAR processed, time:     2566800.
 **  Heading lines  **
 -> 20241230.170000                                                                 
 accuracy OK in   0.00 % of wet grid points ( 99.50 % required)

 accuracy OK in   0.00 % of wet grid points ( 99.50 % required)

 accuracy OK in   0.00 % of wet grid points ( 99.50 % required)

 accuracy OK in   0.00 % of wet grid points ( 99.50 % required)

 accuracy OK in   0.00 % of wet grid points ( 99.50 % required)

  ** WARNING : Differences in wave height at the boundary
 Relative difference between input and computation >=   0.10
                         Hs[m]      Hs[m]      Hs[-]
     ix    iy  index   (input) (computed) (relative)
  --------------------------------------------------
     6    11     61       1.38       0.00       1.00
     7    11     71       1.35       0.00       1.00
     8    11     81       1.32       0.00       1.00
     9    11     91       1.29       0.00       1.00
    10    11    101       1.27       0.00       1.00
    11    11    111       1.31       0.00       1.00
    12    11    121       1.38       0.00       1.00
    13    11    131       1.44       0.00       1.00
    14    11    141       1.49       0.00       1.00
    15    11    151       1.54       0.00       1.00
    15    10    150       1.57       0.00       1.00
    15     9    149       1.60       0.00       1.00
    15     8    148       1.62       0.00       1.00
    15     7    147       1.65       0.00       1.00
    15     6    146       1.67       0.00       1.00
     1     5      5       1.36       0.00       1.00
    15     5    145       1.69       0.00       1.00
     1     4      4       1.37       0.00       1.00
    15     4    144       1.70       0.00       1.00
     1     3      3       1.37       0.00       1.00
    15     3    143       1.72       0.00       1.00
     1     2      2       1.38       0.00       1.00
    15     2    142       1.73       0.00       1.00
 
 Time of computation ->  20241230.180000      in sec:    2570400.
 Boundary data type TPAR processed, time:     2570400.
 Boundary data type TPAR processed, time:     2570400.
 Boundary data type TPAR processed, time:     2570400.
 Boundary data type TPAR processed, time:     2570400.
 Boundary data type TPAR processed, time:     2570400.
 Boundary data type TPAR processed, time:     2570400.
 Boundary data type TPAR processed, time:     2570400.
 Boundary data type TPAR processed, time:     2570400.
 Boundary data type TPAR processed, time:     2570400.
 Boundary data type TPAR processed, time:     2570400.
 **  Heading lines  **
 -> 20241230.180000                                                                 
 accuracy OK in   0.00 % of wet grid points ( 99.50 % required)

 accuracy OK in   0.00 % of wet grid points ( 99.50 % required)

 accuracy OK in   0.00 % of wet grid points ( 99.50 % required)

 accuracy OK in   0.00 % of wet grid points ( 99.50 % required)

 accuracy OK in   0.00 % of wet grid points ( 99.50 % required)

  ** WARNING : Differences in wave height at the boundary
 Relative difference between input and computation >=   0.10
                         Hs[m]      Hs[m]      Hs[-]
     ix    iy  index   (input) (computed) (relative)
  --------------------------------------------------
     6    11     61       1.38       0.00       1.00
     7    11     71       1.35       0.00       1.00
     8    11     81       1.32       0.00       1.00
     9    11     91       1.29       0.00       1.00
    10    11    101       1.27       0.00       1.00
    11    11    111       1.31       0.00       1.00
    12    11    121       1.37       0.00       1.00
    13    11    131       1.43       0.00       1.00
    14    11    141       1.48       0.00       1.00
    15    11    151       1.53       0.00       1.00
    15    10    150       1.56       0.00       1.00
    15     9    149       1.59       0.00       1.00
    15     8    148       1.61       0.00       1.00
    15     7    147       1.64       0.00       1.00
    15     6    146       1.66       0.00       1.00
     1     5      5       1.36       0.00       1.00
    15     5    145       1.67       0.00       1.00
     1     4      4       1.37       0.00       1.00
    15     4    144       1.69       0.00       1.00
     1     3      3       1.37       0.00       1.00
    15     3    143       1.71       0.00       1.00
     1     2      2       1.38       0.00       1.00
    15     2    142       1.72       0.00       1.00
 
 Time of computation ->  20241230.190000      in sec:    2574000.
 Boundary data type TPAR processed, time:     2574000.
 Boundary data type TPAR processed, time:     2574000.
 Boundary data type TPAR processed, time:     2574000.
 Boundary data type TPAR processed, time:     2574000.
 Boundary data type TPAR processed, time:     2574000.
 Boundary data type TPAR processed, time:     2574000.
 Boundary data type TPAR processed, time:     2574000.
 Boundary data type TPAR processed, time:     2574000.
 Boundary data type TPAR processed, time:     2574000.
 Boundary data type TPAR processed, time:     2574000.
 **  Heading lines  **
 -> 20241230.190000                                                                 
 accuracy OK in   0.00 % of wet grid points ( 99.50 % required)

 accuracy OK in   0.00 % of wet grid points ( 99.50 % required)

 accuracy OK in   0.00 % of wet grid points ( 99.50 % required)

 accuracy OK in   0.00 % of wet grid points ( 99.50 % required)

 accuracy OK in   0.00 % of wet grid points ( 99.50 % required)

  ** WARNING : Differences in wave height at the boundary
 Relative difference between input and computation >=   0.10
                         Hs[m]      Hs[m]      Hs[-]
     ix    iy  index   (input) (computed) (relative)
  --------------------------------------------------
     6    11     61       1.38       0.00       1.00
     7    11     71       1.35       0.00       1.00
     8    11     81       1.32       0.00       1.00
     9    11     91       1.29       0.00       1.00
    10    11    101       1.27       0.00       1.00
    11    11    111       1.31       0.00       1.00
    12    11    121       1.37       0.00       1.00
    13    11    131       1.42       0.00       1.00
    14    11    141       1.48       0.00       1.00
    15    11    151       1.52       0.00       1.00
    15    10    150       1.55       0.00       1.00
    15     9    149       1.58       0.00       1.00
    15     8    148       1.60       0.00       1.00
    15     7    147       1.63       0.00       1.00
    15     6    146       1.65       0.00       1.00
     1     5      5       1.36       0.00       1.00
    15     5    145       1.67       0.00       1.00
     1     4      4       1.37       0.00       1.00
    15     4    144       1.68       0.00       1.00
     1     3      3       1.37       0.00       1.00
    15     3    143       1.70       0.00       1.00
     1     2      2       1.38       0.00       1.00
    15     2    142       1.71       0.00       1.00
 
 Time of computation ->  20241230.200000      in sec:    2577600.
 Boundary data type TPAR processed, time:     2577600.
 Boundary data type TPAR processed, time:     2577600.
 Boundary data type TPAR processed, time:     2577600.
 Boundary data type TPAR processed, time:     2577600.
 Boundary data type TPAR processed, time:     2577600.
 Boundary data type TPAR processed, time:     2577600.
 Boundary data type TPAR processed, time:     2577600.
 Boundary data type TPAR processed, time:     2577600.
 Boundary data type TPAR processed, time:     2577600.
 Boundary data type TPAR processed, time:     2577600.
 **  Heading lines  **
 -> 20241230.200000                                                                 
 accuracy OK in   0.00 % of wet grid points ( 99.50 % required)

 accuracy OK in   0.00 % of wet grid points ( 99.50 % required)

 accuracy OK in   0.00 % of wet grid points ( 99.50 % required)

 accuracy OK in   0.00 % of wet grid points ( 99.50 % required)

 accuracy OK in   0.00 % of wet grid points ( 99.50 % required)

  ** WARNING : Differences in wave height at the boundary
 Relative difference between input and computation >=   0.10
                         Hs[m]      Hs[m]      Hs[-]
     ix    iy  index   (input) (computed) (relative)
  --------------------------------------------------
     6    11     61       1.39       0.00       1.00
     7    11     71       1.36       0.00       1.00
     8    11     81       1.33       0.00       1.00
     9    11     91       1.30       0.00       1.00
    10    11    101       1.28       0.00       1.00
    11    11    111       1.32       0.00       1.00
    12    11    121       1.38       0.00       1.00
    13    11    131       1.43       0.00       1.00
    14    11    141       1.49       0.00       1.00
    15    11    151       1.53       0.00       1.00
    15    10    150       1.56       0.00       1.00
    15     9    149       1.58       0.00       1.00
    15     8    148       1.60       0.00       1.00
    15     7    147       1.62       0.00       1.00
    15     6    146       1.64       0.00       1.00
     1     5      5       1.36       0.00       1.00
    15     5    145       1.66       0.00       1.00
     1     4      4       1.37       0.00       1.00
    15     4    144       1.67       0.00       1.00
     1     3      3       1.37       0.00       1.00
    15     3    143       1.69       0.00       1.00
     1     2      2       1.38       0.00       1.00
    15     2    142       1.70       0.00       1.00
 
 Time of computation ->  20241230.210000      in sec:    2581200.
 Boundary data type TPAR processed, time:     2581200.
 Boundary data type TPAR processed, time:     2581200.
 Boundary data type TPAR processed, time:     2581200.
 Boundary data type TPAR processed, time:     2581200.
 Boundary data type TPAR processed, time:     2581200.
 Boundary data type TPAR processed, time:     2581200.
 Boundary data type TPAR processed, time:     2581200.
 Boundary data type TPAR processed, time:     2581200.
 Boundary data type TPAR processed, time:     2581200.
 Boundary data type TPAR processed, time:     2581200.
 **  Heading lines  **
 -> 20241230.210000                                                                 
 accuracy OK in   0.00 % of wet grid points ( 99.50 % required)

 accuracy OK in   0.00 % of wet grid points ( 99.50 % required)

 accuracy OK in   0.00 % of wet grid points ( 99.50 % required)

 accuracy OK in   0.00 % of wet grid points ( 99.50 % required)

 accuracy OK in   0.00 % of wet grid points ( 99.50 % required)

  ** WARNING : Differences in wave height at the boundary
 Relative difference between input and computation >=   0.10
                         Hs[m]      Hs[m]      Hs[-]
     ix    iy  index   (input) (computed) (relative)
  --------------------------------------------------
     6    11     61       1.39       0.00       1.00
     7    11     71       1.36       0.00       1.00
     8    11     81       1.34       0.00       1.00
     9    11     91       1.31       0.00       1.00
    10    11    101       1.29       0.00       1.00
    11    11    111       1.33       0.00       1.00
    12    11    121       1.38       0.00       1.00
    13    11    131       1.44       0.00       1.00
    14    11    141       1.49       0.00       1.00
    15    11    151       1.53       0.00       1.00
    15    10    150       1.55       0.00       1.00
    15     9    149       1.57       0.00       1.00
    15     8    148       1.59       0.00       1.00
    15     7    147       1.61       0.00       1.00
    15     6    146       1.63       0.00       1.00
     1     5      5       1.36       0.00       1.00
    15     5    145       1.65       0.00       1.00
     1     4      4       1.37       0.00       1.00
    15     4    144       1.66       0.00       1.00
     1     3      3       1.37       0.00       1.00
    15     3    143       1.68       0.00       1.00
     1     2      2       1.38       0.00       1.00
    15     2    142       1.69       0.00       1.00
 
 Time of computation ->  20241230.220000      in sec:    2584800.
 Boundary data type TPAR processed, time:     2584800.
 Boundary data type TPAR processed, time:     2584800.
 Boundary data type TPAR processed, time:     2584800.
 Boundary data type TPAR processed, time:     2584800.
 Boundary data type TPAR processed, time:     2584800.
 Boundary data type TPAR processed, time:     2584800.
 Boundary data type TPAR processed, time:     2584800.
 Boundary data type TPAR processed, time:     2584800.
 Boundary data type TPAR processed, time:     2584800.
 Boundary data type TPAR processed, time:     2584800.
 **  Heading lines  **
 -> 20241230.220000                                                                 
 accuracy OK in   0.00 % of wet grid points ( 99.50 % required)

 accuracy OK in   0.00 % of wet grid points ( 99.50 % required)

 accuracy OK in   0.00 % of wet grid points ( 99.50 % required)

 accuracy OK in   0.00 % of wet grid points ( 99.50 % required)

 accuracy OK in   0.00 % of wet grid points ( 99.50 % required)

  ** WARNING : Differences in wave height at the boundary
 Relative difference between input and computation >=   0.10
                         Hs[m]      Hs[m]      Hs[-]
     ix    iy  index   (input) (computed) (relative)
  --------------------------------------------------
     6    11     61       1.39       0.00       1.00
     7    11     71       1.36       0.00       1.00
     8    11     81       1.34       0.00       1.00
     9    11     91       1.31       0.00       1.00
    10    11    101       1.29       0.00       1.00
    11    11    111       1.33       0.00       1.00
    12    11    121       1.38       0.00       1.00
    13    11    131       1.44       0.00       1.00
    14    11    141       1.49       0.00       1.00
    15    11    151       1.53       0.00       1.00
    15    10    150       1.55       0.00       1.00
    15     9    149       1.57       0.00       1.00
    15     8    148       1.59       0.00       1.00
    15     7    147       1.60       0.00       1.00
    15     6    146       1.62       0.00       1.00
     1     5      5       1.36       0.00       1.00
    15     5    145       1.64       0.00       1.00
     1     4      4       1.37       0.00       1.00
    15     4    144       1.65       0.00       1.00
     1     3      3       1.37       0.00       1.00
    15     3    143       1.67       0.00       1.00
     1     2      2       1.38       0.00       1.00
    15     2    142       1.68       0.00       1.00
 
 Time of computation ->  20241230.230000      in sec:    2588400.
 Boundary data type TPAR processed, time:     2588400.
 Boundary data type TPAR processed, time:     2588400.
 Boundary data type TPAR processed, time:     2588400.
 Boundary data type TPAR processed, time:     2588400.
 Boundary data type TPAR processed, time:     2588400.
 Boundary data type TPAR processed, time:     2588400.
 Boundary data type TPAR processed, time:     2588400.
 Boundary data type TPAR processed, time:     2588400.
 Boundary data type TPAR processed, time:     2588400.
 Boundary data type TPAR processed, time:     2588400.
 **  Heading lines  **
 -> 20241230.230000                                                                 
 accuracy OK in   0.00 % of wet grid points ( 99.50 % required)

 accuracy OK in   0.00 % of wet grid points ( 99.50 % required)

 accuracy OK in   0.00 % of wet grid points ( 99.50 % required)

 accuracy OK in   0.00 % of wet grid points ( 99.50 % required)

 accuracy OK in   0.00 % of wet grid points ( 99.50 % required)

  ** WARNING : Differences in wave height at the boundary
 Relative difference between input and computation >=   0.10
                         Hs[m]      Hs[m]      Hs[-]
     ix    iy  index   (input) (computed) (relative)
  --------------------------------------------------
     6    11     61       1.39       0.00       1.00
     7    11     71       1.36       0.00       1.00
     8    11     81       1.33       0.00       1.00
     9    11     91       1.30       0.00       1.00
    10    11    101       1.28       0.00       1.00
    11    11    111       1.32       0.00       1.00
    12    11    121       1.38       0.00       1.00
    13    11    131       1.43       0.00       1.00
    14    11    141       1.49       0.00       1.00
    15    11    151       1.53       0.00       1.00
    15    10    150       1.55       0.00       1.00
    15     9    149       1.56       0.00       1.00
    15     8    148       1.58       0.00       1.00
    15     7    147       1.59       0.00       1.00
    15     6    146       1.61       0.00       1.00
     1     5      5       1.36       0.00       1.00
    15     5    145       1.63       0.00       1.00
     1     4      4       1.37       0.00       1.00
    15     4    144       1.64       0.00       1.00
     1     3      3       1.37       0.00       1.00
    15     3    143       1.66       0.00       1.00
     1     2      2       1.38       0.00       1.00
    15     2    142       1.67       0.00       1.00
 
 Time of computation ->  20241231.000000      in sec:    2592000.
 Boundary data type TPAR processed, time:     2592000.
 Boundary data type TPAR processed, time:     2592000.
 Boundary data type TPAR processed, time:     2592000.
 Boundary data type TPAR processed, time:     2592000.
 Boundary data type TPAR processed, time:     2592000.
 Boundary data type TPAR processed, time:     2592000.
 Boundary data type TPAR processed, time:     2592000.
 Boundary data type TPAR processed, time:     2592000.
 Boundary data type TPAR processed, time:     2592000.
 Boundary data type TPAR processed, time:     2592000.
 **  Heading lines  **
 -> 20241231.000000                                                                 
 accuracy OK in   0.00 % of wet grid points ( 99.50 % required)

 accuracy OK in   0.00 % of wet grid points ( 99.50 % required)

 accuracy OK in   0.00 % of wet grid points ( 99.50 % required)

 accuracy OK in   0.00 % of wet grid points ( 99.50 % required)

 accuracy OK in   0.00 % of wet grid points ( 99.50 % required)

  ** WARNING : Differences in wave height at the boundary
 Relative difference between input and computation >=   0.10
                         Hs[m]      Hs[m]      Hs[-]
     ix    iy  index   (input) (computed) (relative)
  --------------------------------------------------
     6    11     61       1.39       0.00       1.00
     7    11     71       1.37       0.00       1.00
     8    11     81       1.34       0.00       1.00
     9    11     91       1.31       0.00       1.00
    10    11    101       1.28       0.00       1.00
    11    11    111       1.32       0.00       1.00
    12    11    121       1.37       0.00       1.00
    13    11    131       1.43       0.00       1.00
    14    11    141       1.48       0.00       1.00
    15    11    151       1.52       0.00       1.00
    15    10    150       1.54       0.00       1.00
    15     9    149       1.56       0.00       1.00
    15     8    148       1.58       0.00       1.00
    15     7    147       1.59       0.00       1.00
    15     6    146       1.61       0.00       1.00
     1     5      5       1.37       0.00       1.00
    15     5    145       1.62       0.00       1.00
     1     4      4       1.37       0.00       1.00
    15     4    144       1.64       0.00       1.00
     1     3      3       1.38       0.00       1.00
    15     3    143       1.65       0.00       1.00
     1     2      2       1.38       0.00       1.00
    15     2    142       1.66       0.00       1.00
 
    
 STOP
