1

                    Execution started at 20250403.165522         



                    ---------------------------------------
                                     SWAN
                    SIMULATION OF WAVES IN NEAR SHORE AREAS
                             VERSION NUMBER 41.51               
                    ---------------------------------------


    
 PROJECT '' ''
    
 SET 0.00 90.00 0.05 200 1 9.81 1025.00 30
    
 MODE NONSTATIONARY TWODIMENSIONAL
    
 COORDINATES SPHERICAL
    
 
    
 
    
 $ COMPUTATIONAL GRID
    
 $ -------------------------------------------------------------------------------
    
 CGRID REGULAR -78.619642 -9.292412 0.00 0.150145 0.128805 30 26 &
 CIRCLE 36 0.040 1.000 34
 Resolution in sigma-space: df/f =  0.0993
    
 
    
 $ -------------------------------------------------------------------------------
    
 
    
 $ BOTTOM & FRICTION INPUT
    
 $ -------------------------------------------------------------------------------
    
 INPGRID BOTTOM REGULAR -78.619642 -9.292412 0.00 30 26 0.005005 0.004954 &
 READINP BOTTOM +1 '../01_geometry/SAMANCO_PORT_20241201_20241231_BOTTOM.txt' 3 3 FORMAT '((31f8.2))'
 **  Heading lines file ../01_geometry/SAMANCO_PORT_20241201_20241231_BOTTOM.txt **
 -> INPGRID BOTTOM REGULAR -78.619642 -9.292412 0.00 30 26 0.005005 0.004954 &      
 -> READINP BOTTOM +1 '../01_geometry/SAMANCO_PORT_20241201_20241231_BOTTOM.txt' 3 3
 ->                                                                                 
    
 
    
 $ -------------------------------------------------------------------------------
    
 
    
 $ WIND INPUT
    
 $ -------------------------------------------------------------------------------
    
 INPGRID WIND REGULAR -78.750000 -9.500000 0.00 2 2 0.250000 0.250000 &
 NONSTATIONARY 20241201.000000 3600.00 SEC 20241231.000000
    
 READINP WIND +1 '../02_bc_dbase/SAMANCO_PORT_20241201_20241231_WIND.txt' 3 4 1 0 FORMAT '((3f7.2))'
 **  Heading lines file ../02_bc_dbase/SAMANCO_PORT_20241201_20241231_WIND.txt **
 -> INPGRID WIND REGULAR -78.750000 -9.500000 0.00 2 2 0.250000 0.250000 &          
 -> NONSTATIONARY 20241201.000000 3600.00 SEC 20241231.000000                       
 -> READINP WIND +1 '../02_bc_dbase/SAMANCO_PORT_20241201_20241231_WIND.txt' 3 4 1 0
 ->                                                                                 
 **  Heading lines  **
 -> 20241201.000000                                                                 
    
 
    
 $ -------------------------------------------------------------------------------
    
 
    
 $ HYDRODYNAMIC INPUT
    
 $ -------------------------------------------------------------------------------
    
 $ N/A NO SURFACE INPUT
    
 
    
 $ N/A NO CURRENT INPUT
    
 $ -------------------------------------------------------------------------------
    
 
    
 $ BOUNDARY SPECTRA INPUT
    
 $ -------------------------------------------------------------------------------
    
 BOUNDNEST1 NEST '../04_results/SAMANCO_PORT_20241201_20241231.nest' CLOSED
    
 $ -------------------------------------------------------------------------------
    
 
    
 $ PHYSICS
    
 $ -------------------------------------------------------------------------------
    
 GEN3
    
 FRICTION JONSWAP
    
 $ -------------------------------------------------------------------------------
    
 
    
 $ NUMERICS
    
 $ -------------------------------------------------------------------------------
    
 PROP BSBT
    
 NUMERIC ACCUR 0.005 0.010 0.005 99.50 NONSTATIONARY 5 0.01
    
 $ -------------------------------------------------------------------------------
    
 
    
 $ OUTPUT
    
 $ -------------------------------------------------------------------------------
    
 
    
 BLOCK 'COMPGRID' NOHEADER '../04_results/SAMANCO_PORT_20241201_20241231.mat' &
 LAY-OUT 3 XP YP HSIGN TPS PDIR DIR UBOT TMBOT FORCE DEPTH OUTPUT 20241201.000000 3600 SEC
    
 
    
 $ N/A No spectral output
    
 $ -------------------------------------------------------------------------------
    
 
    
 $ LOCKUP
    
 $ -------------------------------------------------------------------------------
    
 INITIAL DEFAULT
    
 COMPUTE NONSTATIONARY 20241201.000000 3600 SEC 20241231.000000
 Boundary data type SWNT processed, time:           0.
 Time of computation ->  20241201.010000      in sec:       3600.
 Boundary data type SWNT processed, time:        3600.
 **  Heading lines  **
 -> 20241201.010000                                                                 

----------------------------------------------------------------
                  COMPUTATIONAL PART OF SWAN
----------------------------------------------------------------

 Gridresolution       : MXC              31 MYC             27
                      : MCGRD           838
                      : MSC              35 MDC             36
                      : MTC             720
                      : NSTATC            1 ITERMX           5
 Propagation flags    : ITFRE             1 IREFR            1
 Source term flags    : IBOT              1 ISURF            1
                      : IWCAP             7 IWIND            5
                      : ITRIAD            0 IQUAD            2
                      : IBRAG             0 IQCM             0
                      : IVEG              0 ITURBV           0
                      : IMUD              0 IICE             0
 Spatial step         : DX       0.5005E-02 DY      0.4954E-02
 Spectral bin         : df/f     0.9930E-01 DDIR    0.1000E+02
 Physical constants   : GRAV     0.9810E+01 RHO     0.1025E+04
 Wind input           : WSPEED   0.0000E+00 DIR     0.0000E+00
                      : ICEWIND  0.00
 Tail parameters      : E(f)     0.4000E+01 E(k)    0.2500E+01
                      : A(f)     0.5000E+01 A(k)    0.3000E+01
 Accuracy parameters  : DREL     0.5000E-02 NPNTS   0.9950E+02
                      : DHOVAL   0.1000E-01 DTOVAL  0.5000E-02
                      : GRWMX    0.1000E-01
 Drying/flooding      : LEVEL    0.0000E+00 DEPMIN  0.5000E-01
 The Cartesian convention for wind and wave directions is used
 Scheme for geographic propagation is BSBT  
 Scheme geogr. space  : PROPSC            1 ICMAX            5
 Scheme spectral space: CSS      0.5000E+00 CDD     0.5000E+00
 Current is off
 Quadruplets          : IQUAD             2
                      : LAMBDA   0.2500E+00 CNL4    0.3000E+08
                      : CSH1     0.5500E+01 CSH2    0.8330E+00
                      : CSH3    -0.1250E+01
 Maximum Ursell nr for Snl4 :    0.1000E+02
 Triads is off
 Bragg scattering is off
 QC scattering is off
 Surfbeat (IEM) is off
 JONSWAP (`73)        : GAMMA    0.3800E-01
 Vegetation is off
 Turbulence is off
 Fluid mud is off
 Dissipation by sea ice is off
 W-cap Alves-Banner   : CDS2     0.5000E-04 BR      0.1750E-02
 Wind drag is Wu
 Yan/Westhuysen wind input
 Battjes&Janssen (`78): ALPHA    0.1000E+01 GAMMA   0.7300E+00
 Set-up is off
 Diffraction is off
 Janssen (`89,`90)    : ALPHA    0.1000E-01 KAPPA   0.4100E+00
 Janssen (`89,`90)    : RHOA     0.1280E+01 RHOW    0.1025E+04
 
 1st and 2nd gen. wind: CF10     0.1880E+03 CF20    0.5900E+00
                      : CF30     0.1200E+00 CF40    0.2500E+03
                      : CF50     0.2300E-02 CF60   -0.2230E+00
                      : CF70     0.0000E+00 CF80   -0.5600E+00
                      : RHOAW    0.1249E-02 EDMLPM  0.3600E-02
                      : CDRAG    0.1230E-02 UMIN    0.1000E+01
                      : LIM_PM   0.1300E+00
 
 accuracy OK in  10.74 % of wet grid points ( 99.50 % required)

 accuracy OK in  10.74 % of wet grid points ( 99.50 % required)

 accuracy OK in  10.34 % of wet grid points ( 99.50 % required)

 accuracy OK in   9.34 % of wet grid points ( 99.50 % required)

 accuracy OK in   7.95 % of wet grid points ( 99.50 % required)

 
 Time of computation ->  20241201.020000      in sec:       7200.
 ** Warning          : data on boundary file exhausted
 **  Heading lines  **
 -> 20241201.020000                                                                 
 accuracy OK in   9.94 % of wet grid points ( 99.50 % required)

 accuracy OK in   9.34 % of wet grid points ( 99.50 % required)

 accuracy OK in   8.35 % of wet grid points ( 99.50 % required)

 accuracy OK in   7.75 % of wet grid points ( 99.50 % required)

 accuracy OK in   8.55 % of wet grid points ( 99.50 % required)

  ** WARNING : Differences in wave height at the boundary
 Relative difference between input and computation >=   0.10
                         Hs[m]      Hs[m]      Hs[-]
     ix    iy  index   (input) (computed) (relative)
  --------------------------------------------------
     2    27     55       0.08       0.08       0.11
 
 Time of computation ->  20241201.030000      in sec:      10800.
 **  Heading lines  **
 -> 20241201.030000                                                                 
 accuracy OK in  10.54 % of wet grid points ( 99.50 % required)

 accuracy OK in  10.74 % of wet grid points ( 99.50 % required)

 accuracy OK in  10.93 % of wet grid points ( 99.50 % required)

 accuracy OK in  10.93 % of wet grid points ( 99.50 % required)

 accuracy OK in  10.93 % of wet grid points ( 99.50 % required)

  ** WARNING : Differences in wave height at the boundary
 Relative difference between input and computation >=   0.10
                         Hs[m]      Hs[m]      Hs[-]
     ix    iy  index   (input) (computed) (relative)
  --------------------------------------------------
     2    27     55       0.08       0.09       0.11
 
 Time of computation ->  20241201.040000      in sec:      14400.
 **  Heading lines  **
 -> 20241201.040000                                                                 
 accuracy OK in  10.34 % of wet grid points ( 99.50 % required)

 accuracy OK in  10.93 % of wet grid points ( 99.50 % required)

 accuracy OK in  10.93 % of wet grid points ( 99.50 % required)

 accuracy OK in  10.93 % of wet grid points ( 99.50 % required)

 accuracy OK in  11.13 % of wet grid points ( 99.50 % required)

  ** WARNING : Differences in wave height at the boundary
 Relative difference between input and computation >=   0.10
                         Hs[m]      Hs[m]      Hs[-]
     ix    iy  index   (input) (computed) (relative)
  --------------------------------------------------
     2    27     55       0.08       0.09       0.12
 
 Time of computation ->  20241201.050000      in sec:      18000.
 **  Heading lines  **
 -> 20241201.050000                                                                 
 accuracy OK in  28.63 % of wet grid points ( 99.50 % required)

 accuracy OK in  28.23 % of wet grid points ( 99.50 % required)

 accuracy OK in  24.65 % of wet grid points ( 99.50 % required)

 accuracy OK in  14.51 % of wet grid points ( 99.50 % required)

 accuracy OK in  15.11 % of wet grid points ( 99.50 % required)

  ** WARNING : Differences in wave height at the boundary
 Relative difference between input and computation >=   0.10
                         Hs[m]      Hs[m]      Hs[-]
     ix    iy  index   (input) (computed) (relative)
  --------------------------------------------------
     2    27     55       0.08       0.09       0.12
 
 Time of computation ->  20241201.060000      in sec:      21600.
 **  Heading lines  **
 -> 20241201.060000                                                                 
 accuracy OK in  65.21 % of wet grid points ( 99.50 % required)

 accuracy OK in  67.40 % of wet grid points ( 99.50 % required)

 accuracy OK in  63.62 % of wet grid points ( 99.50 % required)

 accuracy OK in  52.88 % of wet grid points ( 99.50 % required)

 accuracy OK in  50.70 % of wet grid points ( 99.50 % required)

  ** WARNING : Differences in wave height at the boundary
 Relative difference between input and computation >=   0.10
                         Hs[m]      Hs[m]      Hs[-]
     ix    iy  index   (input) (computed) (relative)
  --------------------------------------------------
     2    27     55       0.08       0.09       0.12
 
 Time of computation ->  20241201.070000      in sec:      25200.
 **  Heading lines  **
 -> 20241201.070000                                                                 
 accuracy OK in  15.31 % of wet grid points ( 99.50 % required)

 accuracy OK in  27.44 % of wet grid points ( 99.50 % required)

 accuracy OK in  50.70 % of wet grid points ( 99.50 % required)

 accuracy OK in  54.67 % of wet grid points ( 99.50 % required)

 accuracy OK in  56.86 % of wet grid points ( 99.50 % required)

  ** WARNING : Differences in wave height at the boundary
 Relative difference between input and computation >=   0.10
                         Hs[m]      Hs[m]      Hs[-]
     ix    iy  index   (input) (computed) (relative)
  --------------------------------------------------
     2    27     55       0.08       0.09       0.12
 
 Time of computation ->  20241201.080000      in sec:      28800.
 **  Heading lines  **
 -> 20241201.080000                                                                 
 accuracy OK in  25.05 % of wet grid points ( 99.50 % required)

 accuracy OK in  46.12 % of wet grid points ( 99.50 % required)

 accuracy OK in  60.83 % of wet grid points ( 99.50 % required)

 accuracy OK in  62.23 % of wet grid points ( 99.50 % required)

 accuracy OK in  62.82 % of wet grid points ( 99.50 % required)

  ** WARNING : Differences in wave height at the boundary
 Relative difference between input and computation >=   0.10
                         Hs[m]      Hs[m]      Hs[-]
     ix    iy  index   (input) (computed) (relative)
  --------------------------------------------------
     2    27     55       0.08       0.09       0.13
 
 Time of computation ->  20241201.090000      in sec:      32400.
 **  Heading lines  **
 -> 20241201.090000                                                                 
 accuracy OK in  45.53 % of wet grid points ( 99.50 % required)

 accuracy OK in  69.78 % of wet grid points ( 99.50 % required)

 accuracy OK in  79.72 % of wet grid points ( 99.50 % required)

 accuracy OK in  77.73 % of wet grid points ( 99.50 % required)

 accuracy OK in  75.75 % of wet grid points ( 99.50 % required)

  ** WARNING : Differences in wave height at the boundary
 Relative difference between input and computation >=   0.10
                         Hs[m]      Hs[m]      Hs[-]
     ix    iy  index   (input) (computed) (relative)
  --------------------------------------------------
     2    27     55       0.08       0.09       0.13
 
 Time of computation ->  20241201.100000      in sec:      36000.
 **  Heading lines  **
 -> 20241201.100000                                                                 
 accuracy OK in  35.79 % of wet grid points ( 99.50 % required)

 accuracy OK in  58.25 % of wet grid points ( 99.50 % required)

 accuracy OK in  72.96 % of wet grid points ( 99.50 % required)

 accuracy OK in  74.75 % of wet grid points ( 99.50 % required)

 accuracy OK in  74.95 % of wet grid points ( 99.50 % required)

  ** WARNING : Differences in wave height at the boundary
 Relative difference between input and computation >=   0.10
                         Hs[m]      Hs[m]      Hs[-]
     ix    iy  index   (input) (computed) (relative)
  --------------------------------------------------
     2    27     55       0.08       0.09       0.15
 
 Time of computation ->  20241201.110000      in sec:      39600.
 **  Heading lines  **
 -> 20241201.110000                                                                 
 accuracy OK in  93.44 % of wet grid points ( 99.50 % required)

 accuracy OK in  97.81 % of wet grid points ( 99.50 % required)

 accuracy OK in  93.44 % of wet grid points ( 99.50 % required)

 accuracy OK in  90.66 % of wet grid points ( 99.50 % required)

 accuracy OK in  89.46 % of wet grid points ( 99.50 % required)

  ** WARNING : Differences in wave height at the boundary
 Relative difference between input and computation >=   0.10
                         Hs[m]      Hs[m]      Hs[-]
     ix    iy  index   (input) (computed) (relative)
  --------------------------------------------------
     2    27     55       0.08       0.09       0.14
 
 Time of computation ->  20241201.120000      in sec:      43200.
 **  Heading lines  **
 -> 20241201.120000                                                                 
 accuracy OK in  85.88 % of wet grid points ( 99.50 % required)

 accuracy OK in  88.87 % of wet grid points ( 99.50 % required)

 accuracy OK in  85.29 % of wet grid points ( 99.50 % required)

 accuracy OK in  85.29 % of wet grid points ( 99.50 % required)

 accuracy OK in  85.49 % of wet grid points ( 99.50 % required)

  ** WARNING : Differences in wave height at the boundary
 Relative difference between input and computation >=   0.10
                         Hs[m]      Hs[m]      Hs[-]
     ix    iy  index   (input) (computed) (relative)
  --------------------------------------------------
     2    27     55       0.08       0.09       0.14
 
 Time of computation ->  20241201.130000      in sec:      46800.
 **  Heading lines  **
 -> 20241201.130000                                                                 
 accuracy OK in  68.39 % of wet grid points ( 99.50 % required)

 accuracy OK in  94.63 % of wet grid points ( 99.50 % required)

 accuracy OK in  98.21 % of wet grid points ( 99.50 % required)

 accuracy OK in  98.81 % of wet grid points ( 99.50 % required)

 accuracy OK in  99.20 % of wet grid points ( 99.50 % required)

  ** WARNING : Differences in wave height at the boundary
 Relative difference between input and computation >=   0.10
                         Hs[m]      Hs[m]      Hs[-]
     ix    iy  index   (input) (computed) (relative)
  --------------------------------------------------
     2    27     55       0.08       0.09       0.15
 
 Time of computation ->  20241201.140000      in sec:      50400.
 **  Heading lines  **
 -> 20241201.140000                                                                 
 accuracy OK in  44.14 % of wet grid points ( 99.50 % required)

 accuracy OK in  50.10 % of wet grid points ( 99.50 % required)

 accuracy OK in  67.00 % of wet grid points ( 99.50 % required)

 accuracy OK in  74.55 % of wet grid points ( 99.50 % required)

 accuracy OK in  85.09 % of wet grid points ( 99.50 % required)

  ** WARNING : Differences in wave height at the boundary
 Relative difference between input and computation >=   0.10
                         Hs[m]      Hs[m]      Hs[-]
     ix    iy  index   (input) (computed) (relative)
  --------------------------------------------------
     2    27     55       0.08       0.09       0.17
 
 Time of computation ->  20241201.150000      in sec:      54000.
 **  Heading lines  **
 -> 20241201.150000                                                                 
 accuracy OK in  22.66 % of wet grid points ( 99.50 % required)

 accuracy OK in  35.98 % of wet grid points ( 99.50 % required)

 accuracy OK in  59.24 % of wet grid points ( 99.50 % required)

 accuracy OK in  69.18 % of wet grid points ( 99.50 % required)

 accuracy OK in  72.76 % of wet grid points ( 99.50 % required)

  ** WARNING : Differences in wave height at the boundary
 Relative difference between input and computation >=   0.10
                         Hs[m]      Hs[m]      Hs[-]
     ix    iy  index   (input) (computed) (relative)
  --------------------------------------------------
     2    27     55       0.08       0.09       0.20
 
 Time of computation ->  20241201.160000      in sec:      57600.
 **  Heading lines  **
 -> 20241201.160000                                                                 
 accuracy OK in  50.89 % of wet grid points ( 99.50 % required)

 accuracy OK in  79.32 % of wet grid points ( 99.50 % required)

 accuracy OK in  86.28 % of wet grid points ( 99.50 % required)

 accuracy OK in  91.65 % of wet grid points ( 99.50 % required)

 accuracy OK in  99.80 % of wet grid points ( 99.50 % required)

  ** WARNING : Differences in wave height at the boundary
 Relative difference between input and computation >=   0.10
                         Hs[m]      Hs[m]      Hs[-]
     ix    iy  index   (input) (computed) (relative)
  --------------------------------------------------
     2    27     55       0.08       0.09       0.20
 
 Time of computation ->  20241201.170000      in sec:      61200.
 **  Heading lines  **
 -> 20241201.170000                                                                 
 accuracy OK in   5.17 % of wet grid points ( 99.50 % required)

 accuracy OK in   6.56 % of wet grid points ( 99.50 % required)

 accuracy OK in  14.91 % of wet grid points ( 99.50 % required)

 accuracy OK in  21.47 % of wet grid points ( 99.50 % required)

 accuracy OK in  35.98 % of wet grid points ( 99.50 % required)

  ** WARNING : Differences in wave height at the boundary
 Relative difference between input and computation >=   0.10
                         Hs[m]      Hs[m]      Hs[-]
     ix    iy  index   (input) (computed) (relative)
  --------------------------------------------------
     2    27     55       0.08       0.09       0.23
 
 Time of computation ->  20241201.180000      in sec:      64800.
 **  Heading lines  **
 -> 20241201.180000                                                                 
 accuracy OK in   8.15 % of wet grid points ( 99.50 % required)

 accuracy OK in  17.50 % of wet grid points ( 99.50 % required)

 accuracy OK in  26.84 % of wet grid points ( 99.50 % required)

 accuracy OK in  34.19 % of wet grid points ( 99.50 % required)

 accuracy OK in  42.35 % of wet grid points ( 99.50 % required)

  ** WARNING : Differences in wave height at the boundary
 Relative difference between input and computation >=   0.10
                         Hs[m]      Hs[m]      Hs[-]
     ix    iy  index   (input) (computed) (relative)
  --------------------------------------------------
     2    27     55       0.08       0.10       0.26
 
 Time of computation ->  20241201.190000      in sec:      68400.
 **  Heading lines  **
 -> 20241201.190000                                                                 
 accuracy OK in   9.94 % of wet grid points ( 99.50 % required)

 accuracy OK in  13.72 % of wet grid points ( 99.50 % required)

 accuracy OK in  15.90 % of wet grid points ( 99.50 % required)

 accuracy OK in  18.09 % of wet grid points ( 99.50 % required)

 accuracy OK in  22.27 % of wet grid points ( 99.50 % required)

  ** WARNING : Differences in wave height at the boundary
 Relative difference between input and computation >=   0.10
                         Hs[m]      Hs[m]      Hs[-]
     ix    iy  index   (input) (computed) (relative)
  --------------------------------------------------
     2    27     55       0.08       0.10       0.31
 
 Time of computation ->  20241201.200000      in sec:      72000.
 **  Heading lines  **
 -> 20241201.200000                                                                 
 accuracy OK in  32.80 % of wet grid points ( 99.50 % required)

 accuracy OK in  36.78 % of wet grid points ( 99.50 % required)

 accuracy OK in  39.17 % of wet grid points ( 99.50 % required)

 accuracy OK in  42.15 % of wet grid points ( 99.50 % required)

 accuracy OK in  44.73 % of wet grid points ( 99.50 % required)

  ** WARNING : Differences in wave height at the boundary
 Relative difference between input and computation >=   0.10
                         Hs[m]      Hs[m]      Hs[-]
     ix    iy  index   (input) (computed) (relative)
  --------------------------------------------------
     2    27     55       0.08       0.10       0.33
 
 Time of computation ->  20241201.210000      in sec:      75600.
 **  Heading lines  **
 -> 20241201.210000                                                                 
 accuracy OK in  85.09 % of wet grid points ( 99.50 % required)

 accuracy OK in  88.27 % of wet grid points ( 99.50 % required)

 accuracy OK in  90.06 % of wet grid points ( 99.50 % required)

 accuracy OK in  90.46 % of wet grid points ( 99.50 % required)

 accuracy OK in  92.64 % of wet grid points ( 99.50 % required)

  ** WARNING : Differences in wave height at the boundary
 Relative difference between input and computation >=   0.10
                         Hs[m]      Hs[m]      Hs[-]
     ix    iy  index   (input) (computed) (relative)
  --------------------------------------------------
     2    27     55       0.08       0.10       0.34
     1    21     22       0.11       0.12       0.10
     1    20     21       0.11       0.12       0.10
     1    19     20       0.11       0.12       0.10
 
 Time of computation ->  20241201.220000      in sec:      79200.
 **  Heading lines  **
 -> 20241201.220000                                                                 
 accuracy OK in  92.84 % of wet grid points ( 99.50 % required)

 accuracy OK in  95.03 % of wet grid points ( 99.50 % required)

 accuracy OK in  95.63 % of wet grid points ( 99.50 % required)

 accuracy OK in  96.02 % of wet grid points ( 99.50 % required)

 accuracy OK in  96.22 % of wet grid points ( 99.50 % required)

  ** WARNING : Differences in wave height at the boundary
 Relative difference between input and computation >=   0.10
                         Hs[m]      Hs[m]      Hs[-]
     ix    iy  index   (input) (computed) (relative)
  --------------------------------------------------
     2    27     55       0.08       0.10       0.35
     1    25     26       0.11       0.12       0.10
     1    24     25       0.11       0.12       0.11
     1    23     24       0.11       0.12       0.11
     1    22     23       0.11       0.12       0.11
     1    21     22       0.11       0.12       0.11
     1    20     21       0.11       0.13       0.11
     1    19     20       0.11       0.13       0.11
     1    18     19       0.11       0.13       0.11
     1    17     18       0.11       0.13       0.11
     1    16     17       0.11       0.13       0.10
     1    15     16       0.12       0.13       0.10
     1    14     15       0.12       0.13       0.10
 
 Time of computation ->  20241201.230000      in sec:      82800.
 **  Heading lines  **
 -> 20241201.230000                                                                 
 accuracy OK in  92.64 % of wet grid points ( 99.50 % required)

 accuracy OK in  95.23 % of wet grid points ( 99.50 % required)

 accuracy OK in  95.83 % of wet grid points ( 99.50 % required)

 accuracy OK in  96.02 % of wet grid points ( 99.50 % required)

 accuracy OK in  96.22 % of wet grid points ( 99.50 % required)

  ** WARNING : Differences in wave height at the boundary
 Relative difference between input and computation >=   0.10
                         Hs[m]      Hs[m]      Hs[-]
     ix    iy  index   (input) (computed) (relative)
  --------------------------------------------------
     2    27     55       0.08       0.10       0.34
     1    25     26       0.11       0.12       0.10
     1    24     25       0.11       0.12       0.11
     1    23     24       0.11       0.12       0.11
     1    22     23       0.11       0.12       0.11
     1    21     22       0.11       0.13       0.11
     1    20     21       0.11       0.13       0.11
     1    19     20       0.11       0.13       0.11
     1    18     19       0.11       0.13       0.11
     1    17     18       0.11       0.13       0.11
     1    16     17       0.11       0.13       0.11
     1    15     16       0.12       0.13       0.10
     1    14     15       0.12       0.13       0.10
     1    13     14       0.12       0.13       0.10
 
 Time of computation ->  20241202.000000      in sec:      86400.
 **  Heading lines  **
 -> 20241202.000000                                                                 
 accuracy OK in  90.66 % of wet grid points ( 99.50 % required)

 accuracy OK in  92.45 % of wet grid points ( 99.50 % required)

 accuracy OK in  93.84 % of wet grid points ( 99.50 % required)

 accuracy OK in  94.23 % of wet grid points ( 99.50 % required)

 accuracy OK in  95.43 % of wet grid points ( 99.50 % required)

  ** WARNING : Differences in wave height at the boundary
 Relative difference between input and computation >=   0.10
                         Hs[m]      Hs[m]      Hs[-]
     ix    iy  index   (input) (computed) (relative)
  --------------------------------------------------
     2    27     55       0.08       0.10       0.34
     1    26     27       0.11       0.12       0.10
     1    25     26       0.11       0.12       0.11
     1    24     25       0.11       0.12       0.11
     1    23     24       0.11       0.12       0.11
     1    22     23       0.11       0.12       0.12
     1    21     22       0.11       0.13       0.12
     1    20     21       0.11       0.13       0.12
     1    19     20       0.11       0.13       0.12
     1    18     19       0.11       0.13       0.12
     1    17     18       0.11       0.13       0.11
     1    16     17       0.11       0.13       0.11
     1    15     16       0.12       0.13       0.11
     1    14     15       0.12       0.13       0.11
     1    13     14       0.12       0.13       0.10
 
 Time of computation ->  20241202.010000      in sec:      90000.
 **  Heading lines  **
 -> 20241202.010000                                                                 
 accuracy OK in  42.74 % of wet grid points ( 99.50 % required)

 accuracy OK in  47.71 % of wet grid points ( 99.50 % required)

 accuracy OK in  59.44 % of wet grid points ( 99.50 % required)

 accuracy OK in  68.79 % of wet grid points ( 99.50 % required)

 accuracy OK in  75.35 % of wet grid points ( 99.50 % required)

  ** WARNING : Differences in wave height at the boundary
 Relative difference between input and computation >=   0.10
                         Hs[m]      Hs[m]      Hs[-]
     ix    iy  index   (input) (computed) (relative)
  --------------------------------------------------
     2    27     55       0.08       0.10       0.33
     1    26     27       0.11       0.12       0.10
     1    25     26       0.11       0.12       0.11
     1    24     25       0.11       0.12       0.11
     1    23     24       0.11       0.12       0.12
     1    22     23       0.11       0.13       0.12
     1    21     22       0.11       0.13       0.12
     1    20     21       0.11       0.13       0.12
     1    19     20       0.11       0.13       0.12
     1    18     19       0.11       0.13       0.12
     1    17     18       0.11       0.13       0.12
     1    16     17       0.11       0.13       0.12
     1    15     16       0.12       0.13       0.11
     1    14     15       0.12       0.13       0.11
     1    13     14       0.12       0.13       0.11
     1    12     13       0.12       0.13       0.10
 
 Time of computation ->  20241202.020000      in sec:      93600.
 **  Heading lines  **
 -> 20241202.020000                                                                 
 accuracy OK in   8.75 % of wet grid points ( 99.50 % required)

 accuracy OK in  13.52 % of wet grid points ( 99.50 % required)

 accuracy OK in  15.51 % of wet grid points ( 99.50 % required)

 accuracy OK in  21.47 % of wet grid points ( 99.50 % required)

 accuracy OK in  25.45 % of wet grid points ( 99.50 % required)

  ** WARNING : Differences in wave height at the boundary
 Relative difference between input and computation >=   0.10
                         Hs[m]      Hs[m]      Hs[-]
     ix    iy  index   (input) (computed) (relative)
  --------------------------------------------------
     2    27     55       0.08       0.10       0.30
     1    25     26       0.11       0.12       0.10
     1    24     25       0.11       0.12       0.11
     1    23     24       0.11       0.12       0.11
     1    22     23       0.11       0.12       0.12
     1    21     22       0.11       0.13       0.12
     1    20     21       0.11       0.13       0.12
     1    19     20       0.11       0.13       0.12
     1    18     19       0.11       0.13       0.12
     1    17     18       0.11       0.13       0.11
     1    16     17       0.11       0.13       0.11
     1    15     16       0.12       0.13       0.11
     1    14     15       0.12       0.13       0.10
     1    13     14       0.12       0.13       0.10
 
 Time of computation ->  20241202.030000      in sec:      97200.
 **  Heading lines  **
 -> 20241202.030000                                                                 
 accuracy OK in   5.77 % of wet grid points ( 99.50 % required)

 accuracy OK in  11.73 % of wet grid points ( 99.50 % required)

 accuracy OK in  16.10 % of wet grid points ( 99.50 % required)

 accuracy OK in  19.28 % of wet grid points ( 99.50 % required)

 accuracy OK in  23.66 % of wet grid points ( 99.50 % required)

  ** WARNING : Differences in wave height at the boundary
 Relative difference between input and computation >=   0.10
                         Hs[m]      Hs[m]      Hs[-]
     ix    iy  index   (input) (computed) (relative)
  --------------------------------------------------
     2    27     55       0.08       0.10       0.27
     1    23     24       0.11       0.12       0.10
     1    22     23       0.11       0.12       0.10
     1    21     22       0.11       0.12       0.11
     1    20     21       0.11       0.12       0.11
     1    19     20       0.11       0.13       0.11
     1    18     19       0.11       0.13       0.10
     1    17     18       0.11       0.13       0.10
     1    16     17       0.11       0.13       0.10
 
 Time of computation ->  20241202.040000      in sec:     100800.
 **  Heading lines  **
 -> 20241202.040000                                                                 
 accuracy OK in   9.94 % of wet grid points ( 99.50 % required)

 accuracy OK in  12.33 % of wet grid points ( 99.50 % required)

 accuracy OK in  15.51 % of wet grid points ( 99.50 % required)

 accuracy OK in  19.09 % of wet grid points ( 99.50 % required)

 accuracy OK in  22.27 % of wet grid points ( 99.50 % required)

  ** WARNING : Differences in wave height at the boundary
 Relative difference between input and computation >=   0.10
                         Hs[m]      Hs[m]      Hs[-]
     ix    iy  index   (input) (computed) (relative)
  --------------------------------------------------
     2    27     55       0.08       0.10       0.25
 
 Time of computation ->  20241202.050000      in sec:     104400.
 **  Heading lines  **
 -> 20241202.050000                                                                 
 accuracy OK in   9.34 % of wet grid points ( 99.50 % required)

 accuracy OK in  11.33 % of wet grid points ( 99.50 % required)

 accuracy OK in  15.11 % of wet grid points ( 99.50 % required)

 accuracy OK in  17.50 % of wet grid points ( 99.50 % required)

 accuracy OK in  21.47 % of wet grid points ( 99.50 % required)

  ** WARNING : Differences in wave height at the boundary
 Relative difference between input and computation >=   0.10
                         Hs[m]      Hs[m]      Hs[-]
     ix    iy  index   (input) (computed) (relative)
  --------------------------------------------------
     2    27     55       0.08       0.09       0.21
 
 Time of computation ->  20241202.060000      in sec:     108000.
 **  Heading lines  **
 -> 20241202.060000                                                                 
 accuracy OK in  10.34 % of wet grid points ( 99.50 % required)

 accuracy OK in  12.92 % of wet grid points ( 99.50 % required)

 accuracy OK in  16.30 % of wet grid points ( 99.50 % required)

 accuracy OK in  19.88 % of wet grid points ( 99.50 % required)

 accuracy OK in  22.07 % of wet grid points ( 99.50 % required)

  ** WARNING : Differences in wave height at the boundary
 Relative difference between input and computation >=   0.10
                         Hs[m]      Hs[m]      Hs[-]
     ix    iy  index   (input) (computed) (relative)
  --------------------------------------------------
     2    27     55       0.08       0.09       0.19
 
 Time of computation ->  20241202.070000      in sec:     111600.
 **  Heading lines  **
 -> 20241202.070000                                                                 
 accuracy OK in  10.54 % of wet grid points ( 99.50 % required)

 accuracy OK in  16.30 % of wet grid points ( 99.50 % required)

 accuracy OK in  21.27 % of wet grid points ( 99.50 % required)

 accuracy OK in  23.66 % of wet grid points ( 99.50 % required)

 accuracy OK in  23.46 % of wet grid points ( 99.50 % required)

  ** WARNING : Differences in wave height at the boundary
 Relative difference between input and computation >=   0.10
                         Hs[m]      Hs[m]      Hs[-]
     ix    iy  index   (input) (computed) (relative)
  --------------------------------------------------
     2    27     55       0.08       0.09       0.16
 
 Time of computation ->  20241202.080000      in sec:     115200.
 **  Heading lines  **
 -> 20241202.080000                                                                 
 accuracy OK in  14.51 % of wet grid points ( 99.50 % required)

 accuracy OK in  21.27 % of wet grid points ( 99.50 % required)

 accuracy OK in  23.46 % of wet grid points ( 99.50 % required)

 accuracy OK in  23.46 % of wet grid points ( 99.50 % required)

 accuracy OK in  24.65 % of wet grid points ( 99.50 % required)

  ** WARNING : Differences in wave height at the boundary
 Relative difference between input and computation >=   0.10
                         Hs[m]      Hs[m]      Hs[-]
     ix    iy  index   (input) (computed) (relative)
  --------------------------------------------------
     2    27     55       0.08       0.09       0.15
 
 Time of computation ->  20241202.090000      in sec:     118800.
 **  Heading lines  **
 -> 20241202.090000                                                                 
 accuracy OK in  18.09 % of wet grid points ( 99.50 % required)

 accuracy OK in  24.25 % of wet grid points ( 99.50 % required)

 accuracy OK in  24.25 % of wet grid points ( 99.50 % required)

 accuracy OK in  26.04 % of wet grid points ( 99.50 % required)

 accuracy OK in  27.04 % of wet grid points ( 99.50 % required)

  ** WARNING : Differences in wave height at the boundary
 Relative difference between input and computation >=   0.10
                         Hs[m]      Hs[m]      Hs[-]
     ix    iy  index   (input) (computed) (relative)
  --------------------------------------------------
     2    27     55       0.08       0.09       0.14
 
 Time of computation ->  20241202.100000      in sec:     122400.
 **  Heading lines  **
 -> 20241202.100000                                                                 
 accuracy OK in  32.41 % of wet grid points ( 99.50 % required)

 accuracy OK in  79.92 % of wet grid points ( 99.50 % required)

 accuracy OK in  97.81 % of wet grid points ( 99.50 % required)

 accuracy OK in  99.40 % of wet grid points ( 99.50 % required)

 accuracy OK in  97.02 % of wet grid points ( 99.50 % required)

  ** WARNING : Differences in wave height at the boundary
 Relative difference between input and computation >=   0.10
                         Hs[m]      Hs[m]      Hs[-]
     ix    iy  index   (input) (computed) (relative)
  --------------------------------------------------
     2    27     55       0.08       0.09       0.13
 
 Time of computation ->  20241202.110000      in sec:     126000.
 **  Heading lines  **
 -> 20241202.110000                                                                 
 accuracy OK in  49.11 % of wet grid points ( 99.50 % required)

 accuracy OK in  68.79 % of wet grid points ( 99.50 % required)

 accuracy OK in  82.50 % of wet grid points ( 99.50 % required)

 accuracy OK in  89.46 % of wet grid points ( 99.50 % required)

 accuracy OK in  90.46 % of wet grid points ( 99.50 % required)

  ** WARNING : Differences in wave height at the boundary
 Relative difference between input and computation >=   0.10
                         Hs[m]      Hs[m]      Hs[-]
     ix    iy  index   (input) (computed) (relative)
  --------------------------------------------------
     2    27     55       0.08       0.09       0.14
 
 Time of computation ->  20241202.120000      in sec:     129600.
 **  Heading lines  **
 -> 20241202.120000                                                                 
 accuracy OK in   9.74 % of wet grid points ( 99.50 % required)

 accuracy OK in  14.31 % of wet grid points ( 99.50 % required)

 accuracy OK in  17.50 % of wet grid points ( 99.50 % required)

 accuracy OK in  21.47 % of wet grid points ( 99.50 % required)

 accuracy OK in  22.07 % of wet grid points ( 99.50 % required)

  ** WARNING : Differences in wave height at the boundary
 Relative difference between input and computation >=   0.10
                         Hs[m]      Hs[m]      Hs[-]
     ix    iy  index   (input) (computed) (relative)
  --------------------------------------------------
     2    27     55       0.08       0.09       0.16
 
 Time of computation ->  20241202.130000      in sec:     133200.
 **  Heading lines  **
 -> 20241202.130000                                                                 
 accuracy OK in   5.77 % of wet grid points ( 99.50 % required)

 accuracy OK in  10.74 % of wet grid points ( 99.50 % required)

 accuracy OK in  15.71 % of wet grid points ( 99.50 % required)

 accuracy OK in  20.08 % of wet grid points ( 99.50 % required)

 accuracy OK in  22.47 % of wet grid points ( 99.50 % required)

  ** WARNING : Differences in wave height at the boundary
 Relative difference between input and computation >=   0.10
                         Hs[m]      Hs[m]      Hs[-]
     ix    iy  index   (input) (computed) (relative)
  --------------------------------------------------
     2    27     55       0.08       0.09       0.18
 
 Time of computation ->  20241202.140000      in sec:     136800.
 **  Heading lines  **
 -> 20241202.140000                                                                 
 accuracy OK in   5.77 % of wet grid points ( 99.50 % required)

 accuracy OK in  11.93 % of wet grid points ( 99.50 % required)

 accuracy OK in  15.90 % of wet grid points ( 99.50 % required)

 accuracy OK in  20.08 % of wet grid points ( 99.50 % required)

 accuracy OK in  24.65 % of wet grid points ( 99.50 % required)

  ** WARNING : Differences in wave height at the boundary
 Relative difference between input and computation >=   0.10
                         Hs[m]      Hs[m]      Hs[-]
     ix    iy  index   (input) (computed) (relative)
  --------------------------------------------------
     2    27     55       0.08       0.09       0.20
 
 Time of computation ->  20241202.150000      in sec:     140400.
 **  Heading lines  **
 -> 20241202.150000                                                                 
 accuracy OK in  10.14 % of wet grid points ( 99.50 % required)

 accuracy OK in  14.91 % of wet grid points ( 99.50 % required)

 accuracy OK in  19.09 % of wet grid points ( 99.50 % required)

 accuracy OK in  25.05 % of wet grid points ( 99.50 % required)

 accuracy OK in  28.23 % of wet grid points ( 99.50 % required)

  ** WARNING : Differences in wave height at the boundary
 Relative difference between input and computation >=   0.10
                         Hs[m]      Hs[m]      Hs[-]
     ix    iy  index   (input) (computed) (relative)
  --------------------------------------------------
     2    27     55       0.08       0.09       0.22
 
 Time of computation ->  20241202.160000      in sec:     144000.
 **  Heading lines  **
 -> 20241202.160000                                                                 
 accuracy OK in  17.89 % of wet grid points ( 99.50 % required)

 accuracy OK in  23.46 % of wet grid points ( 99.50 % required)

 accuracy OK in  28.23 % of wet grid points ( 99.50 % required)

 accuracy OK in  31.81 % of wet grid points ( 99.50 % required)

 accuracy OK in  38.57 % of wet grid points ( 99.50 % required)

  ** WARNING : Differences in wave height at the boundary
 Relative difference between input and computation >=   0.10
                         Hs[m]      Hs[m]      Hs[-]
     ix    iy  index   (input) (computed) (relative)
  --------------------------------------------------
     2    27     55       0.08       0.10       0.24
 
 Time of computation ->  20241202.170000      in sec:     147600.
 **  Heading lines  **
 -> 20241202.170000                                                                 
 accuracy OK in  10.74 % of wet grid points ( 99.50 % required)

 accuracy OK in  13.32 % of wet grid points ( 99.50 % required)

 accuracy OK in  17.10 % of wet grid points ( 99.50 % required)

 accuracy OK in  23.46 % of wet grid points ( 99.50 % required)

 accuracy OK in  28.63 % of wet grid points ( 99.50 % required)

  ** WARNING : Differences in wave height at the boundary
 Relative difference between input and computation >=   0.10
                         Hs[m]      Hs[m]      Hs[-]
     ix    iy  index   (input) (computed) (relative)
  --------------------------------------------------
     2    27     55       0.08       0.10       0.27
 
 Time of computation ->  20241202.180000      in sec:     151200.
 **  Heading lines  **
 -> 20241202.180000                                                                 
 accuracy OK in  32.01 % of wet grid points ( 99.50 % required)

 accuracy OK in  44.93 % of wet grid points ( 99.50 % required)

 accuracy OK in  52.68 % of wet grid points ( 99.50 % required)

 accuracy OK in  60.64 % of wet grid points ( 99.50 % required)

 accuracy OK in  63.42 % of wet grid points ( 99.50 % required)

  ** WARNING : Differences in wave height at the boundary
 Relative difference between input and computation >=   0.10
                         Hs[m]      Hs[m]      Hs[-]
     ix    iy  index   (input) (computed) (relative)
  --------------------------------------------------
     2    27     55       0.08       0.10       0.28
 
 Time of computation ->  20241202.190000      in sec:     154800.
 **  Heading lines  **
 -> 20241202.190000                                                                 
 accuracy OK in   5.37 % of wet grid points ( 99.50 % required)

 accuracy OK in   5.96 % of wet grid points ( 99.50 % required)

 accuracy OK in   6.36 % of wet grid points ( 99.50 % required)

 accuracy OK in   6.76 % of wet grid points ( 99.50 % required)

 accuracy OK in   9.54 % of wet grid points ( 99.50 % required)

  ** WARNING : Differences in wave height at the boundary
 Relative difference between input and computation >=   0.10
                         Hs[m]      Hs[m]      Hs[-]
     ix    iy  index   (input) (computed) (relative)
  --------------------------------------------------
     2    27     55       0.08       0.10       0.34
     1    23     24       0.11       0.12       0.10
     1    22     23       0.11       0.12       0.10
     1    21     22       0.11       0.12       0.10
     1    20     21       0.11       0.12       0.10
     1    19     20       0.11       0.12       0.10
 
 Time of computation ->  20241202.200000      in sec:     158400.
 **  Heading lines  **
 -> 20241202.200000                                                                 
 accuracy OK in  11.53 % of wet grid points ( 99.50 % required)

 accuracy OK in  16.90 % of wet grid points ( 99.50 % required)

 accuracy OK in  19.28 % of wet grid points ( 99.50 % required)

 accuracy OK in  25.45 % of wet grid points ( 99.50 % required)

 accuracy OK in  31.81 % of wet grid points ( 99.50 % required)

  ** WARNING : Differences in wave height at the boundary
 Relative difference between input and computation >=   0.10
                         Hs[m]      Hs[m]      Hs[-]
     ix    iy  index   (input) (computed) (relative)
  --------------------------------------------------
     2    27     55       0.08       0.10       0.37
     1    25     26       0.11       0.12       0.10
     1    24     25       0.11       0.12       0.11
     1    23     24       0.11       0.12       0.11
     1    22     23       0.11       0.12       0.11
     1    21     22       0.11       0.13       0.11
     1    20     21       0.11       0.13       0.11
     1    19     20       0.11       0.13       0.11
     1    18     19       0.11       0.13       0.11
     1    17     18       0.11       0.13       0.11
     1    16     17       0.11       0.13       0.10
 
 Time of computation ->  20241202.210000      in sec:     162000.
 **  Heading lines  **
 -> 20241202.210000                                                                 
 accuracy OK in  14.91 % of wet grid points ( 99.50 % required)

 accuracy OK in  15.90 % of wet grid points ( 99.50 % required)

 accuracy OK in  21.87 % of wet grid points ( 99.50 % required)

 accuracy OK in  25.84 % of wet grid points ( 99.50 % required)

 accuracy OK in  32.60 % of wet grid points ( 99.50 % required)

  ** WARNING : Differences in wave height at the boundary
 Relative difference between input and computation >=   0.10
                         Hs[m]      Hs[m]      Hs[-]
     ix    iy  index   (input) (computed) (relative)
  --------------------------------------------------
     1    27     28       0.11       0.12       0.11
     2    27     55       0.08       0.11       0.40
     1    26     27       0.11       0.12       0.11
     1    25     26       0.11       0.12       0.12
     1    24     25       0.11       0.12       0.12
     1    23     24       0.11       0.12       0.12
     1    22     23       0.11       0.13       0.13
     1    21     22       0.11       0.13       0.13
     1    20     21       0.11       0.13       0.13
     1    19     20       0.11       0.13       0.13
     1    18     19       0.11       0.13       0.12
     1    17     18       0.11       0.13       0.12
     1    16     17       0.11       0.13       0.12
     1    15     16       0.12       0.13       0.12
     1    14     15       0.12       0.13       0.11
     1    13     14       0.12       0.13       0.10
 
 Time of computation ->  20241202.220000      in sec:     165600.
 **  Heading lines  **
 -> 20241202.220000                                                                 
 accuracy OK in  94.63 % of wet grid points ( 99.50 % required)

 accuracy OK in  95.23 % of wet grid points ( 99.50 % required)

 accuracy OK in  95.43 % of wet grid points ( 99.50 % required)

 accuracy OK in  95.63 % of wet grid points ( 99.50 % required)

 accuracy OK in  95.83 % of wet grid points ( 99.50 % required)

  ** WARNING : Differences in wave height at the boundary
 Relative difference between input and computation >=   0.10
                         Hs[m]      Hs[m]      Hs[-]
     ix    iy  index   (input) (computed) (relative)
  --------------------------------------------------
     1    27     28       0.11       0.12       0.11
     2    27     55       0.08       0.11       0.41
     1    26     27       0.11       0.12       0.12
     1    25     26       0.11       0.12       0.12
     1    24     25       0.11       0.12       0.13
     1    23     24       0.11       0.13       0.13
     1    22     23       0.11       0.13       0.13
     1    21     22       0.11       0.13       0.13
     1    20     21       0.11       0.13       0.13
     1    19     20       0.11       0.13       0.13
     1    18     19       0.11       0.13       0.13
     1    17     18       0.11       0.13       0.13
     1    16     17       0.11       0.13       0.13
     1    15     16       0.12       0.13       0.12
     1    14     15       0.12       0.13       0.12
     1    13     14       0.12       0.13       0.11
     1    12     13       0.12       0.13       0.11
 
 Time of computation ->  20241202.230000      in sec:     169200.
 **  Heading lines  **
 -> 20241202.230000                                                                 
 accuracy OK in  92.64 % of wet grid points ( 99.50 % required)

 accuracy OK in  93.84 % of wet grid points ( 99.50 % required)

 accuracy OK in  94.63 % of wet grid points ( 99.50 % required)

 accuracy OK in  95.03 % of wet grid points ( 99.50 % required)

 accuracy OK in  95.63 % of wet grid points ( 99.50 % required)

  ** WARNING : Differences in wave height at the boundary
 Relative difference between input and computation >=   0.10
                         Hs[m]      Hs[m]      Hs[-]
     ix    iy  index   (input) (computed) (relative)
  --------------------------------------------------
     1    27     28       0.11       0.12       0.11
     2    27     55       0.08       0.11       0.40
     1    26     27       0.11       0.12       0.12
     1    25     26       0.11       0.12       0.13
     1    24     25       0.11       0.12       0.13
     1    23     24       0.11       0.13       0.13
     1    22     23       0.11       0.13       0.14
     1    21     22       0.11       0.13       0.14
     1    20     21       0.11       0.13       0.14
     1    19     20       0.11       0.13       0.14
     1    18     19       0.11       0.13       0.14
     1    17     18       0.11       0.13       0.13
     1    16     17       0.11       0.13       0.13
     1    15     16       0.12       0.13       0.13
     1    14     15       0.12       0.13       0.13
     1    13     14       0.12       0.13       0.12
     1    12     13       0.12       0.13       0.11
     1    11     12       0.12       0.13       0.11
 
 Time of computation ->  20241203.000000      in sec:     172800.
 **  Heading lines  **
 -> 20241203.000000                                                                 
 accuracy OK in  68.59 % of wet grid points ( 99.50 % required)

 accuracy OK in  81.11 % of wet grid points ( 99.50 % required)

 accuracy OK in  81.71 % of wet grid points ( 99.50 % required)

 accuracy OK in  80.12 % of wet grid points ( 99.50 % required)

 accuracy OK in  78.53 % of wet grid points ( 99.50 % required)

  ** WARNING : Differences in wave height at the boundary
 Relative difference between input and computation >=   0.10
                         Hs[m]      Hs[m]      Hs[-]
     ix    iy  index   (input) (computed) (relative)
  --------------------------------------------------
     1    27     28       0.11       0.12       0.11
     2    27     55       0.08       0.11       0.39
     1    26     27       0.11       0.12       0.12
     1    25     26       0.11       0.12       0.13
     1    24     25       0.11       0.13       0.13
     1    23     24       0.11       0.13       0.14
     1    22     23       0.11       0.13       0.14
     1    21     22       0.11       0.13       0.14
     1    20     21       0.11       0.13       0.14
     1    19     20       0.11       0.13       0.14
     1    18     19       0.11       0.13       0.14
     1    17     18       0.11       0.13       0.14
     1    16     17       0.11       0.13       0.14
     1    15     16       0.12       0.13       0.13
     1    14     15       0.12       0.13       0.13
     1    13     14       0.12       0.13       0.13
     1    12     13       0.12       0.13       0.12
     1    11     12       0.12       0.13       0.11
     1    10     11       0.12       0.13       0.10
 
 Time of computation ->  20241203.010000      in sec:     176400.
 **  Heading lines  **
 -> 20241203.010000                                                                 
 accuracy OK in   5.77 % of wet grid points ( 99.50 % required)

 accuracy OK in  10.74 % of wet grid points ( 99.50 % required)

 accuracy OK in  12.13 % of wet grid points ( 99.50 % required)

 accuracy OK in  16.50 % of wet grid points ( 99.50 % required)

 accuracy OK in  24.25 % of wet grid points ( 99.50 % required)

  ** WARNING : Differences in wave height at the boundary
 Relative difference between input and computation >=   0.10
                         Hs[m]      Hs[m]      Hs[-]
     ix    iy  index   (input) (computed) (relative)
  --------------------------------------------------
     1    27     28       0.11       0.12       0.10
     2    27     55       0.08       0.10       0.36
     1    26     27       0.11       0.12       0.11
     1    25     26       0.11       0.12       0.12
     1    24     25       0.11       0.12       0.13
     1    23     24       0.11       0.13       0.13
     1    22     23       0.11       0.13       0.13
     1    21     22       0.11       0.13       0.14
     1    20     21       0.11       0.13       0.14
     1    19     20       0.11       0.13       0.14
     1    18     19       0.11       0.13       0.13
     1    17     18       0.11       0.13       0.13
     1    16     17       0.11       0.13       0.13
     1    15     16       0.12       0.13       0.13
     1    14     15       0.12       0.13       0.12
     1    13     14       0.12       0.13       0.12
     1    12     13       0.12       0.13       0.11
     1    11     12       0.12       0.13       0.11
 
 Time of computation ->  20241203.020000      in sec:     180000.
 **  Heading lines  **
 -> 20241203.020000                                                                 
 accuracy OK in   5.37 % of wet grid points ( 99.50 % required)

 accuracy OK in  11.13 % of wet grid points ( 99.50 % required)

 accuracy OK in  12.13 % of wet grid points ( 99.50 % required)

 accuracy OK in  13.32 % of wet grid points ( 99.50 % required)

 accuracy OK in  17.69 % of wet grid points ( 99.50 % required)

  ** WARNING : Differences in wave height at the boundary
 Relative difference between input and computation >=   0.10
                         Hs[m]      Hs[m]      Hs[-]
     ix    iy  index   (input) (computed) (relative)
  --------------------------------------------------
     2    27     55       0.08       0.10       0.32
     1    26     27       0.11       0.12       0.10
     1    25     26       0.11       0.12       0.11
     1    24     25       0.11       0.12       0.12
     1    23     24       0.11       0.12       0.12
     1    22     23       0.11       0.13       0.12
     1    21     22       0.11       0.13       0.12
     1    20     21       0.11       0.13       0.12
     1    19     20       0.11       0.13       0.12
     1    18     19       0.11       0.13       0.12
     1    17     18       0.11       0.13       0.12
     1    16     17       0.11       0.13       0.12
     1    15     16       0.12       0.13       0.12
     1    14     15       0.12       0.13       0.11
     1    13     14       0.12       0.13       0.11
 
 Time of computation ->  20241203.030000      in sec:     183600.
 **  Heading lines  **
 -> 20241203.030000                                                                 
 accuracy OK in   9.94 % of wet grid points ( 99.50 % required)

 accuracy OK in  16.10 % of wet grid points ( 99.50 % required)

 accuracy OK in  19.28 % of wet grid points ( 99.50 % required)

 accuracy OK in  22.66 % of wet grid points ( 99.50 % required)

 accuracy OK in  24.65 % of wet grid points ( 99.50 % required)

  ** WARNING : Differences in wave height at the boundary
 Relative difference between input and computation >=   0.10
                         Hs[m]      Hs[m]      Hs[-]
     ix    iy  index   (input) (computed) (relative)
  --------------------------------------------------
     2    27     55       0.08       0.10       0.28
     1    24     25       0.11       0.12       0.10
     1    23     24       0.11       0.12       0.10
     1    22     23       0.11       0.12       0.11
     1    21     22       0.11       0.12       0.11
     1    20     21       0.11       0.13       0.11
     1    19     20       0.11       0.13       0.11
     1    18     19       0.11       0.13       0.11
     1    17     18       0.11       0.13       0.11
     1    16     17       0.11       0.13       0.10
     1    15     16       0.12       0.13       0.10
 
 Time of computation ->  20241203.040000      in sec:     187200.
 **  Heading lines  **
 -> 20241203.040000                                                                 
 accuracy OK in   9.94 % of wet grid points ( 99.50 % required)

 accuracy OK in  12.13 % of wet grid points ( 99.50 % required)

 accuracy OK in  17.89 % of wet grid points ( 99.50 % required)

 accuracy OK in  20.87 % of wet grid points ( 99.50 % required)

 accuracy OK in  24.25 % of wet grid points ( 99.50 % required)

  ** WARNING : Differences in wave height at the boundary
 Relative difference between input and computation >=   0.10
                         Hs[m]      Hs[m]      Hs[-]
     ix    iy  index   (input) (computed) (relative)
  --------------------------------------------------
     2    27     55       0.08       0.10       0.26
 
 Time of computation ->  20241203.050000      in sec:     190800.
 **  Heading lines  **
 -> 20241203.050000                                                                 
 accuracy OK in  10.14 % of wet grid points ( 99.50 % required)

 accuracy OK in  12.13 % of wet grid points ( 99.50 % required)

 accuracy OK in  14.31 % of wet grid points ( 99.50 % required)

 accuracy OK in  17.50 % of wet grid points ( 99.50 % required)

 accuracy OK in  20.28 % of wet grid points ( 99.50 % required)

  ** WARNING : Differences in wave height at the boundary
 Relative difference between input and computation >=   0.10
                         Hs[m]      Hs[m]      Hs[-]
     ix    iy  index   (input) (computed) (relative)
  --------------------------------------------------
     2    27     55       0.08       0.09       0.23
 
 Time of computation ->  20241203.060000      in sec:     194400.
 **  Heading lines  **
 -> 20241203.060000                                                                 
 accuracy OK in  14.91 % of wet grid points ( 99.50 % required)

 accuracy OK in  19.68 % of wet grid points ( 99.50 % required)

 accuracy OK in  21.27 % of wet grid points ( 99.50 % required)

 accuracy OK in  25.45 % of wet grid points ( 99.50 % required)

 accuracy OK in  27.44 % of wet grid points ( 99.50 % required)

  ** WARNING : Differences in wave height at the boundary
 Relative difference between input and computation >=   0.10
                         Hs[m]      Hs[m]      Hs[-]
     ix    iy  index   (input) (computed) (relative)
  --------------------------------------------------
     2    27     55       0.08       0.09       0.21
 
 Time of computation ->  20241203.070000      in sec:     198000.
 **  Heading lines  **
 -> 20241203.070000                                                                 
 accuracy OK in  28.63 % of wet grid points ( 99.50 % required)

 accuracy OK in  65.01 % of wet grid points ( 99.50 % required)

 accuracy OK in  71.57 % of wet grid points ( 99.50 % required)

 accuracy OK in  69.58 % of wet grid points ( 99.50 % required)

 accuracy OK in  71.97 % of wet grid points ( 99.50 % required)

  ** WARNING : Differences in wave height at the boundary
 Relative difference between input and computation >=   0.10
                         Hs[m]      Hs[m]      Hs[-]
     ix    iy  index   (input) (computed) (relative)
  --------------------------------------------------
     2    27     55       0.08       0.09       0.20
 
 Time of computation ->  20241203.080000      in sec:     201600.
 **  Heading lines  **
 -> 20241203.080000                                                                 
 accuracy OK in  48.11 % of wet grid points ( 99.50 % required)

 accuracy OK in  90.85 % of wet grid points ( 99.50 % required)

 accuracy OK in  89.66 % of wet grid points ( 99.50 % required)

 accuracy OK in  95.43 % of wet grid points ( 99.50 % required)

 accuracy OK in  90.85 % of wet grid points ( 99.50 % required)

  ** WARNING : Differences in wave height at the boundary
 Relative difference between input and computation >=   0.10
                         Hs[m]      Hs[m]      Hs[-]
     ix    iy  index   (input) (computed) (relative)
  --------------------------------------------------
     2    27     55       0.08       0.09       0.19
 
 Time of computation ->  20241203.090000      in sec:     205200.
 **  Heading lines  **
 -> 20241203.090000                                                                 
 accuracy OK in  67.79 % of wet grid points ( 99.50 % required)

 accuracy OK in  96.82 % of wet grid points ( 99.50 % required)

 accuracy OK in  99.01 % of wet grid points ( 99.50 % required)

 accuracy OK in  99.80 % of wet grid points ( 99.50 % required)

  ** WARNING : Differences in wave height at the boundary
 Relative difference between input and computation >=   0.10
                         Hs[m]      Hs[m]      Hs[-]
     ix    iy  index   (input) (computed) (relative)
  --------------------------------------------------
     2    27     55       0.08       0.09       0.16
 
 Time of computation ->  20241203.100000      in sec:     208800.
 **  Heading lines  **
 -> 20241203.100000                                                                 
 accuracy OK in  87.67 % of wet grid points ( 99.50 % required)

 accuracy OK in  96.02 % of wet grid points ( 99.50 % required)

 accuracy OK in  98.21 % of wet grid points ( 99.50 % required)

 accuracy OK in  98.61 % of wet grid points ( 99.50 % required)

 accuracy OK in  99.80 % of wet grid points ( 99.50 % required)

  ** WARNING : Differences in wave height at the boundary
 Relative difference between input and computation >=   0.10
                         Hs[m]      Hs[m]      Hs[-]
     ix    iy  index   (input) (computed) (relative)
  --------------------------------------------------
     2    27     55       0.08       0.09       0.19
 
 Time of computation ->  20241203.110000      in sec:     212400.
 **  Heading lines  **
 -> 20241203.110000                                                                 
 accuracy OK in  68.39 % of wet grid points ( 99.50 % required)

 accuracy OK in  56.86 % of wet grid points ( 99.50 % required)

 accuracy OK in  48.31 % of wet grid points ( 99.50 % required)

 accuracy OK in  56.46 % of wet grid points ( 99.50 % required)

 accuracy OK in  66.40 % of wet grid points ( 99.50 % required)

  ** WARNING : Differences in wave height at the boundary
 Relative difference between input and computation >=   0.10
                         Hs[m]      Hs[m]      Hs[-]
     ix    iy  index   (input) (computed) (relative)
  --------------------------------------------------
     2    27     55       0.08       0.09       0.18
 
 Time of computation ->  20241203.120000      in sec:     216000.
 **  Heading lines  **
 -> 20241203.120000                                                                 
 accuracy OK in  15.51 % of wet grid points ( 99.50 % required)

 accuracy OK in  33.80 % of wet grid points ( 99.50 % required)

 accuracy OK in  48.31 % of wet grid points ( 99.50 % required)

 accuracy OK in  56.86 % of wet grid points ( 99.50 % required)

 accuracy OK in  68.79 % of wet grid points ( 99.50 % required)

  ** WARNING : Differences in wave height at the boundary
 Relative difference between input and computation >=   0.10
                         Hs[m]      Hs[m]      Hs[-]
     ix    iy  index   (input) (computed) (relative)
  --------------------------------------------------
     2    27     55       0.08       0.09       0.17
 
 Time of computation ->  20241203.130000      in sec:     219600.
 **  Heading lines  **
 -> 20241203.130000                                                                 
 accuracy OK in  67.40 % of wet grid points ( 99.50 % required)

 accuracy OK in  93.04 % of wet grid points ( 99.50 % required)

 accuracy OK in  88.87 % of wet grid points ( 99.50 % required)

 accuracy OK in  88.47 % of wet grid points ( 99.50 % required)

 accuracy OK in  93.44 % of wet grid points ( 99.50 % required)

  ** WARNING : Differences in wave height at the boundary
 Relative difference between input and computation >=   0.10
                         Hs[m]      Hs[m]      Hs[-]
     ix    iy  index   (input) (computed) (relative)
  --------------------------------------------------
     2    27     55       0.08       0.09       0.17
 
 Time of computation ->  20241203.140000      in sec:     223200.
 **  Heading lines  **
 -> 20241203.140000                                                                 
 accuracy OK in  11.73 % of wet grid points ( 99.50 % required)

 accuracy OK in   9.94 % of wet grid points ( 99.50 % required)

 accuracy OK in  12.13 % of wet grid points ( 99.50 % required)

 accuracy OK in  16.10 % of wet grid points ( 99.50 % required)

 accuracy OK in  18.69 % of wet grid points ( 99.50 % required)

  ** WARNING : Differences in wave height at the boundary
 Relative difference between input and computation >=   0.10
                         Hs[m]      Hs[m]      Hs[-]
     ix    iy  index   (input) (computed) (relative)
  --------------------------------------------------
     2    27     55       0.08       0.09       0.18
 
 Time of computation ->  20241203.150000      in sec:     226800.
 **  Heading lines  **
 -> 20241203.150000                                                                 
 accuracy OK in   5.77 % of wet grid points ( 99.50 % required)

 accuracy OK in   7.36 % of wet grid points ( 99.50 % required)

 accuracy OK in  10.54 % of wet grid points ( 99.50 % required)

 accuracy OK in  15.51 % of wet grid points ( 99.50 % required)

 accuracy OK in  15.90 % of wet grid points ( 99.50 % required)

  ** WARNING : Differences in wave height at the boundary
 Relative difference between input and computation >=   0.10
                         Hs[m]      Hs[m]      Hs[-]
     ix    iy  index   (input) (computed) (relative)
  --------------------------------------------------
     2    27     55       0.08       0.09       0.21
 
 Time of computation ->  20241203.160000      in sec:     230400.
 **  Heading lines  **
 -> 20241203.160000                                                                 
 accuracy OK in   5.57 % of wet grid points ( 99.50 % required)

 accuracy OK in   6.56 % of wet grid points ( 99.50 % required)

 accuracy OK in  11.93 % of wet grid points ( 99.50 % required)

 accuracy OK in  13.12 % of wet grid points ( 99.50 % required)

 accuracy OK in  17.69 % of wet grid points ( 99.50 % required)

  ** WARNING : Differences in wave height at the boundary
 Relative difference between input and computation >=   0.10
                         Hs[m]      Hs[m]      Hs[-]
     ix    iy  index   (input) (computed) (relative)
  --------------------------------------------------
     2    27     55       0.08       0.10       0.25
 
 Time of computation ->  20241203.170000      in sec:     234000.
 **  Heading lines  **
 -> 20241203.170000                                                                 
 accuracy OK in   5.57 % of wet grid points ( 99.50 % required)

 accuracy OK in  10.74 % of wet grid points ( 99.50 % required)

 accuracy OK in  14.12 % of wet grid points ( 99.50 % required)

 accuracy OK in  19.09 % of wet grid points ( 99.50 % required)

 accuracy OK in  24.25 % of wet grid points ( 99.50 % required)

  ** WARNING : Differences in wave height at the boundary
 Relative difference between input and computation >=   0.10
                         Hs[m]      Hs[m]      Hs[-]
     ix    iy  index   (input) (computed) (relative)
  --------------------------------------------------
     2    27     55       0.08       0.10       0.28
 
 Time of computation ->  20241203.180000      in sec:     237600.
 **  Heading lines  **
 -> 20241203.180000                                                                 
 accuracy OK in   5.37 % of wet grid points ( 99.50 % required)

 accuracy OK in   6.16 % of wet grid points ( 99.50 % required)

 accuracy OK in  10.54 % of wet grid points ( 99.50 % required)

 accuracy OK in  12.92 % of wet grid points ( 99.50 % required)

 accuracy OK in  16.50 % of wet grid points ( 99.50 % required)

  ** WARNING : Differences in wave height at the boundary
 Relative difference between input and computation >=   0.10
                         Hs[m]      Hs[m]      Hs[-]
     ix    iy  index   (input) (computed) (relative)
  --------------------------------------------------
     2    27     55       0.08       0.10       0.31
 
 Time of computation ->  20241203.190000      in sec:     241200.
 **  Heading lines  **
 -> 20241203.190000                                                                 
 accuracy OK in  27.04 % of wet grid points ( 99.50 % required)

 accuracy OK in  28.83 % of wet grid points ( 99.50 % required)

 accuracy OK in  34.79 % of wet grid points ( 99.50 % required)

 accuracy OK in  43.74 % of wet grid points ( 99.50 % required)

 accuracy OK in  57.46 % of wet grid points ( 99.50 % required)

  ** WARNING : Differences in wave height at the boundary
 Relative difference between input and computation >=   0.10
                         Hs[m]      Hs[m]      Hs[-]
     ix    iy  index   (input) (computed) (relative)
  --------------------------------------------------
     2    27     55       0.08       0.10       0.33
 
 Time of computation ->  20241203.200000      in sec:     244800.
 **  Heading lines  **
 -> 20241203.200000                                                                 
 accuracy OK in  13.32 % of wet grid points ( 99.50 % required)

 accuracy OK in  14.91 % of wet grid points ( 99.50 % required)

 accuracy OK in  18.89 % of wet grid points ( 99.50 % required)

 accuracy OK in  20.87 % of wet grid points ( 99.50 % required)

 accuracy OK in  24.85 % of wet grid points ( 99.50 % required)

  ** WARNING : Differences in wave height at the boundary
 Relative difference between input and computation >=   0.10
                         Hs[m]      Hs[m]      Hs[-]
     ix    iy  index   (input) (computed) (relative)
  --------------------------------------------------
     1    27     28       0.11       0.12       0.10
     2    27     55       0.08       0.11       0.38
     1    26     27       0.11       0.12       0.11
     1    25     26       0.11       0.12       0.11
     1    24     25       0.11       0.12       0.11
     1    23     24       0.11       0.12       0.12
     1    22     23       0.11       0.12       0.12
     1    21     22       0.11       0.13       0.12
     1    20     21       0.11       0.13       0.12
     1    19     20       0.11       0.13       0.12
     1    18     19       0.11       0.13       0.11
     1    17     18       0.11       0.13       0.11
     1    16     17       0.11       0.13       0.11
     1    15     16       0.12       0.13       0.10
 
 Time of computation ->  20241203.210000      in sec:     248400.
 **  Heading lines  **
 -> 20241203.210000                                                                 
 accuracy OK in  62.43 % of wet grid points ( 99.50 % required)

 accuracy OK in  81.71 % of wet grid points ( 99.50 % required)

 accuracy OK in  83.50 % of wet grid points ( 99.50 % required)

 accuracy OK in  84.89 % of wet grid points ( 99.50 % required)

 accuracy OK in  90.46 % of wet grid points ( 99.50 % required)

  ** WARNING : Differences in wave height at the boundary
 Relative difference between input and computation >=   0.10
                         Hs[m]      Hs[m]      Hs[-]
     ix    iy  index   (input) (computed) (relative)
  --------------------------------------------------
     1    27     28       0.11       0.12       0.11
     2    27     55       0.08       0.11       0.40
     1    26     27       0.11       0.12       0.12
     1    25     26       0.11       0.12       0.12
     1    24     25       0.11       0.12       0.12
     1    23     24       0.11       0.13       0.13
     1    22     23       0.11       0.13       0.13
     1    21     22       0.11       0.13       0.13
     1    20     21       0.11       0.13       0.13
     1    19     20       0.11       0.13       0.13
     1    18     19       0.11       0.13       0.13
     1    17     18       0.11       0.13       0.12
     1    16     17       0.11       0.13       0.12
     1    15     16       0.12       0.13       0.12
     1    14     15       0.12       0.13       0.11
     1    13     14       0.12       0.13       0.11
     1    12     13       0.12       0.13       0.10
 
 Time of computation ->  20241203.220000      in sec:     252000.
 **  Heading lines  **
 -> 20241203.220000                                                                 
 accuracy OK in  94.04 % of wet grid points ( 99.50 % required)

 accuracy OK in  95.03 % of wet grid points ( 99.50 % required)

 accuracy OK in  95.43 % of wet grid points ( 99.50 % required)

 accuracy OK in  95.63 % of wet grid points ( 99.50 % required)

 accuracy OK in  95.63 % of wet grid points ( 99.50 % required)

  ** WARNING : Differences in wave height at the boundary
 Relative difference between input and computation >=   0.10
                         Hs[m]      Hs[m]      Hs[-]
     ix    iy  index   (input) (computed) (relative)
  --------------------------------------------------
     1    27     28       0.11       0.12       0.12
     2    27     55       0.08       0.11       0.41
     1    26     27       0.11       0.12       0.12
     1    25     26       0.11       0.12       0.13
     1    24     25       0.11       0.12       0.13
     1    23     24       0.11       0.13       0.13
     1    22     23       0.11       0.13       0.14
     1    21     22       0.11       0.13       0.14
     1    20     21       0.11       0.13       0.14
     1    19     20       0.11       0.13       0.14
     1    18     19       0.11       0.13       0.14
     1    17     18       0.11       0.13       0.13
     1    16     17       0.11       0.13       0.13
     1    15     16       0.12       0.13       0.13
     1    14     15       0.12       0.13       0.12
     1    13     14       0.12       0.13       0.11
     1    12     13       0.12       0.13       0.11
     1    11     12       0.12       0.13       0.10
 
 Time of computation ->  20241203.230000      in sec:     255600.
 **  Heading lines  **
 -> 20241203.230000                                                                 
 accuracy OK in  94.43 % of wet grid points ( 99.50 % required)

 accuracy OK in  95.03 % of wet grid points ( 99.50 % required)

 accuracy OK in  95.43 % of wet grid points ( 99.50 % required)

 accuracy OK in  95.63 % of wet grid points ( 99.50 % required)

 accuracy OK in  95.63 % of wet grid points ( 99.50 % required)

  ** WARNING : Differences in wave height at the boundary
 Relative difference between input and computation >=   0.10
                         Hs[m]      Hs[m]      Hs[-]
     ix    iy  index   (input) (computed) (relative)
  --------------------------------------------------
     1    27     28       0.11       0.12       0.12
     2    27     55       0.08       0.11       0.42
     1    26     27       0.11       0.12       0.13
     1    25     26       0.11       0.12       0.13
     1    24     25       0.11       0.13       0.14
     1    23     24       0.11       0.13       0.14
     1    22     23       0.11       0.13       0.14
     1    21     22       0.11       0.13       0.15
     1    20     21       0.11       0.13       0.15
     1    19     20       0.11       0.13       0.15
     1    18     19       0.11       0.13       0.14
     1    17     18       0.11       0.13       0.14
     1    16     17       0.11       0.13       0.14
     1    15     16       0.12       0.13       0.14
     1    14     15       0.12       0.13       0.13
     1    13     14       0.12       0.13       0.13
[...]
 
 Time of computation ->  20241230.060000      in sec:    2527200.
 **  Heading lines  **
 -> 20241230.060000                                                                 
 accuracy OK in  13.92 % of wet grid points ( 99.50 % required)

 accuracy OK in  22.27 % of wet grid points ( 99.50 % required)

 accuracy OK in  31.41 % of wet grid points ( 99.50 % required)

 accuracy OK in  46.12 % of wet grid points ( 99.50 % required)

 accuracy OK in  54.67 % of wet grid points ( 99.50 % required)

  ** WARNING : Differences in wave height at the boundary
 Relative difference between input and computation >=   0.10
                         Hs[m]      Hs[m]      Hs[-]
     ix    iy  index   (input) (computed) (relative)
  --------------------------------------------------
     2    27     55       0.08       0.09       0.19
 
 Time of computation ->  20241230.070000      in sec:    2530800.
 **  Heading lines  **
 -> 20241230.070000                                                                 
 accuracy OK in  19.88 % of wet grid points ( 99.50 % required)

 accuracy OK in  37.18 % of wet grid points ( 99.50 % required)

 accuracy OK in  54.08 % of wet grid points ( 99.50 % required)

 accuracy OK in  65.01 % of wet grid points ( 99.50 % required)

 accuracy OK in  62.82 % of wet grid points ( 99.50 % required)

  ** WARNING : Differences in wave height at the boundary
 Relative difference between input and computation >=   0.10
                         Hs[m]      Hs[m]      Hs[-]
     ix    iy  index   (input) (computed) (relative)
  --------------------------------------------------
     2    27     55       0.08       0.09       0.18
 
 Time of computation ->  20241230.080000      in sec:    2534400.
 **  Heading lines  **
 -> 20241230.080000                                                                 
 accuracy OK in  39.56 % of wet grid points ( 99.50 % required)

 accuracy OK in  60.83 % of wet grid points ( 99.50 % required)

 accuracy OK in  67.20 % of wet grid points ( 99.50 % required)

 accuracy OK in  70.38 % of wet grid points ( 99.50 % required)

 accuracy OK in  70.78 % of wet grid points ( 99.50 % required)

  ** WARNING : Differences in wave height at the boundary
 Relative difference between input and computation >=   0.10
                         Hs[m]      Hs[m]      Hs[-]
     ix    iy  index   (input) (computed) (relative)
  --------------------------------------------------
     2    27     55       0.08       0.09       0.17
 
 Time of computation ->  20241230.090000      in sec:    2538000.
 **  Heading lines  **
 -> 20241230.090000                                                                 
 accuracy OK in  59.64 % of wet grid points ( 99.50 % required)

 accuracy OK in  80.32 % of wet grid points ( 99.50 % required)

 accuracy OK in  95.03 % of wet grid points ( 99.50 % required)

 accuracy OK in  99.01 % of wet grid points ( 99.50 % required)

 accuracy OK in  99.80 % of wet grid points ( 99.50 % required)

  ** WARNING : Differences in wave height at the boundary
 Relative difference between input and computation >=   0.10
                         Hs[m]      Hs[m]      Hs[-]
     ix    iy  index   (input) (computed) (relative)
  --------------------------------------------------
     2    27     55       0.08       0.09       0.18
 
 Time of computation ->  20241230.100000      in sec:    2541600.
 **  Heading lines  **
 -> 20241230.100000                                                                 
 accuracy OK in  29.03 % of wet grid points ( 99.50 % required)

 accuracy OK in  35.98 % of wet grid points ( 99.50 % required)

 accuracy OK in  51.29 % of wet grid points ( 99.50 % required)

 accuracy OK in  58.65 % of wet grid points ( 99.50 % required)

 accuracy OK in  59.05 % of wet grid points ( 99.50 % required)

  ** WARNING : Differences in wave height at the boundary
 Relative difference between input and computation >=   0.10
                         Hs[m]      Hs[m]      Hs[-]
     ix    iy  index   (input) (computed) (relative)
  --------------------------------------------------
     2    27     55       0.08       0.09       0.21
 
 Time of computation ->  20241230.110000      in sec:    2545200.
 **  Heading lines  **
 -> 20241230.110000                                                                 
 accuracy OK in  88.47 % of wet grid points ( 99.50 % required)

 accuracy OK in  95.83 % of wet grid points ( 99.50 % required)

 accuracy OK in  96.62 % of wet grid points ( 99.50 % required)

 accuracy OK in  97.81 % of wet grid points ( 99.50 % required)

 accuracy OK in  98.41 % of wet grid points ( 99.50 % required)

  ** WARNING : Differences in wave height at the boundary
 Relative difference between input and computation >=   0.10
                         Hs[m]      Hs[m]      Hs[-]
     ix    iy  index   (input) (computed) (relative)
  --------------------------------------------------
     2    27     55       0.08       0.09       0.20
 
 Time of computation ->  20241230.120000      in sec:    2548800.
 **  Heading lines  **
 -> 20241230.120000                                                                 
 accuracy OK in  16.70 % of wet grid points ( 99.50 % required)

 accuracy OK in  14.71 % of wet grid points ( 99.50 % required)

 accuracy OK in  17.89 % of wet grid points ( 99.50 % required)

 accuracy OK in  20.87 % of wet grid points ( 99.50 % required)

 accuracy OK in  24.06 % of wet grid points ( 99.50 % required)

  ** WARNING : Differences in wave height at the boundary
 Relative difference between input and computation >=   0.10
                         Hs[m]      Hs[m]      Hs[-]
     ix    iy  index   (input) (computed) (relative)
  --------------------------------------------------
     2    27     55       0.08       0.09       0.18
 
 Time of computation ->  20241230.130000      in sec:    2552400.
 **  Heading lines  **
 -> 20241230.130000                                                                 
 accuracy OK in  12.52 % of wet grid points ( 99.50 % required)

 accuracy OK in  25.84 % of wet grid points ( 99.50 % required)

 accuracy OK in  33.80 % of wet grid points ( 99.50 % required)

 accuracy OK in  44.14 % of wet grid points ( 99.50 % required)

 accuracy OK in  67.20 % of wet grid points ( 99.50 % required)

  ** WARNING : Differences in wave height at the boundary
 Relative difference between input and computation >=   0.10
                         Hs[m]      Hs[m]      Hs[-]
     ix    iy  index   (input) (computed) (relative)
  --------------------------------------------------
     2    27     55       0.08       0.09       0.17
 
 Time of computation ->  20241230.140000      in sec:    2556000.
 **  Heading lines  **
 -> 20241230.140000                                                                 
 accuracy OK in  29.42 % of wet grid points ( 99.50 % required)

 accuracy OK in  14.71 % of wet grid points ( 99.50 % required)

 accuracy OK in  11.93 % of wet grid points ( 99.50 % required)

 accuracy OK in  16.90 % of wet grid points ( 99.50 % required)

 accuracy OK in  19.88 % of wet grid points ( 99.50 % required)

  ** WARNING : Differences in wave height at the boundary
 Relative difference between input and computation >=   0.10
                         Hs[m]      Hs[m]      Hs[-]
     ix    iy  index   (input) (computed) (relative)
  --------------------------------------------------
     2    27     55       0.08       0.09       0.20
 
 Time of computation ->  20241230.150000      in sec:    2559600.
 **  Heading lines  **
 -> 20241230.150000                                                                 
 accuracy OK in   5.57 % of wet grid points ( 99.50 % required)

 accuracy OK in   6.36 % of wet grid points ( 99.50 % required)

 accuracy OK in   7.36 % of wet grid points ( 99.50 % required)

 accuracy OK in  10.34 % of wet grid points ( 99.50 % required)

 accuracy OK in  13.72 % of wet grid points ( 99.50 % required)

  ** WARNING : Differences in wave height at the boundary
 Relative difference between input and computation >=   0.10
                         Hs[m]      Hs[m]      Hs[-]
     ix    iy  index   (input) (computed) (relative)
  --------------------------------------------------
     2    27     55       0.08       0.09       0.23
 
 Time of computation ->  20241230.160000      in sec:    2563200.
 **  Heading lines  **
 -> 20241230.160000                                                                 
 accuracy OK in  10.14 % of wet grid points ( 99.50 % required)

 accuracy OK in  13.92 % of wet grid points ( 99.50 % required)

 accuracy OK in  18.09 % of wet grid points ( 99.50 % required)

 accuracy OK in  20.68 % of wet grid points ( 99.50 % required)

 accuracy OK in  25.45 % of wet grid points ( 99.50 % required)

  ** WARNING : Differences in wave height at the boundary
 Relative difference between input and computation >=   0.10
                         Hs[m]      Hs[m]      Hs[-]
     ix    iy  index   (input) (computed) (relative)
  --------------------------------------------------
     2    27     55       0.08       0.10       0.25
 
 Time of computation ->  20241230.170000      in sec:    2566800.
 **  Heading lines  **
 -> 20241230.170000                                                                 
 accuracy OK in  12.72 % of wet grid points ( 99.50 % required)

 accuracy OK in  18.89 % of wet grid points ( 99.50 % required)

 accuracy OK in  25.25 % of wet grid points ( 99.50 % required)

 accuracy OK in  32.60 % of wet grid points ( 99.50 % required)

 accuracy OK in  40.36 % of wet grid points ( 99.50 % required)

  ** WARNING : Differences in wave height at the boundary
 Relative difference between input and computation >=   0.10
                         Hs[m]      Hs[m]      Hs[-]
     ix    iy  index   (input) (computed) (relative)
  --------------------------------------------------
     2    27     55       0.08       0.10       0.27
 
 Time of computation ->  20241230.180000      in sec:    2570400.
 **  Heading lines  **
 -> 20241230.180000                                                                 
 accuracy OK in   5.37 % of wet grid points ( 99.50 % required)

 accuracy OK in   6.16 % of wet grid points ( 99.50 % required)

 accuracy OK in  10.93 % of wet grid points ( 99.50 % required)

 accuracy OK in  13.32 % of wet grid points ( 99.50 % required)

 accuracy OK in  19.48 % of wet grid points ( 99.50 % required)

  ** WARNING : Differences in wave height at the boundary
 Relative difference between input and computation >=   0.10
                         Hs[m]      Hs[m]      Hs[-]
     ix    iy  index   (input) (computed) (relative)
  --------------------------------------------------
     2    27     55       0.08       0.10       0.30
 
 Time of computation ->  20241230.190000      in sec:    2574000.
 **  Heading lines  **
 -> 20241230.190000                                                                 
 accuracy OK in   5.57 % of wet grid points ( 99.50 % required)

 accuracy OK in  10.14 % of wet grid points ( 99.50 % required)

 accuracy OK in  12.33 % of wet grid points ( 99.50 % required)

 accuracy OK in  18.49 % of wet grid points ( 99.50 % required)

 accuracy OK in  25.05 % of wet grid points ( 99.50 % required)

  ** WARNING : Differences in wave height at the boundary
 Relative difference between input and computation >=   0.10
                         Hs[m]      Hs[m]      Hs[-]
     ix    iy  index   (input) (computed) (relative)
  --------------------------------------------------
     2    27     55       0.08       0.10       0.34
     1    21     22       0.11       0.12       0.10
     1    20     21       0.11       0.12       0.10
 
 Time of computation ->  20241230.200000      in sec:    2577600.
 **  Heading lines  **
 -> 20241230.200000                                                                 
 accuracy OK in   5.57 % of wet grid points ( 99.50 % required)

 accuracy OK in  10.14 % of wet grid points ( 99.50 % required)

 accuracy OK in  16.30 % of wet grid points ( 99.50 % required)

 accuracy OK in  23.66 % of wet grid points ( 99.50 % required)

 accuracy OK in  31.01 % of wet grid points ( 99.50 % required)

  ** WARNING : Differences in wave height at the boundary
 Relative difference between input and computation >=   0.10
                         Hs[m]      Hs[m]      Hs[-]
     ix    iy  index   (input) (computed) (relative)
  --------------------------------------------------
     2    27     55       0.08       0.11       0.37
     1    25     26       0.11       0.12       0.10
     1    24     25       0.11       0.12       0.11
     1    23     24       0.11       0.12       0.11
     1    22     23       0.11       0.12       0.11
     1    21     22       0.11       0.12       0.11
     1    20     21       0.11       0.13       0.11
     1    19     20       0.11       0.13       0.11
     1    18     19       0.11       0.13       0.11
     1    17     18       0.11       0.13       0.10
     1    16     17       0.11       0.13       0.10
 
 Time of computation ->  20241230.210000      in sec:    2581200.
 **  Heading lines  **
 -> 20241230.210000                                                                 
 accuracy OK in  28.43 % of wet grid points ( 99.50 % required)

 accuracy OK in  37.18 % of wet grid points ( 99.50 % required)

 accuracy OK in  51.49 % of wet grid points ( 99.50 % required)

 accuracy OK in  60.64 % of wet grid points ( 99.50 % required)

 accuracy OK in  66.60 % of wet grid points ( 99.50 % required)

  ** WARNING : Differences in wave height at the boundary
 Relative difference between input and computation >=   0.10
                         Hs[m]      Hs[m]      Hs[-]
     ix    iy  index   (input) (computed) (relative)
  --------------------------------------------------
     1    27     28       0.11       0.12       0.10
     2    27     55       0.08       0.11       0.39
     1    26     27       0.11       0.12       0.11
     1    25     26       0.11       0.12       0.11
     1    24     25       0.11       0.12       0.12
     1    23     24       0.11       0.12       0.12
     1    22     23       0.11       0.13       0.12
     1    21     22       0.11       0.13       0.12
     1    20     21       0.11       0.13       0.12
     1    19     20       0.11       0.13       0.12
     1    18     19       0.11       0.13       0.12
     1    17     18       0.11       0.13       0.12
     1    16     17       0.11       0.13       0.11
     1    15     16       0.12       0.13       0.11
     1    14     15       0.12       0.13       0.10
 
 Time of computation ->  20241230.220000      in sec:    2584800.
 **  Heading lines  **
 -> 20241230.220000                                                                 
 accuracy OK in  94.43 % of wet grid points ( 99.50 % required)

 accuracy OK in  95.23 % of wet grid points ( 99.50 % required)

 accuracy OK in  95.43 % of wet grid points ( 99.50 % required)

 accuracy OK in  95.63 % of wet grid points ( 99.50 % required)

 accuracy OK in  95.83 % of wet grid points ( 99.50 % required)

  ** WARNING : Differences in wave height at the boundary
 Relative difference between input and computation >=   0.10
                         Hs[m]      Hs[m]      Hs[-]
     ix    iy  index   (input) (computed) (relative)
  --------------------------------------------------
     1    27     28       0.11       0.12       0.11
     2    27     55       0.08       0.11       0.40
     1    26     27       0.11       0.12       0.12
     1    25     26       0.11       0.12       0.12
     1    24     25       0.11       0.12       0.13
     1    23     24       0.11       0.13       0.13
     1    22     23       0.11       0.13       0.13
     1    21     22       0.11       0.13       0.13
     1    20     21       0.11       0.13       0.13
     1    19     20       0.11       0.13       0.13
     1    18     19       0.11       0.13       0.13
     1    17     18       0.11       0.13       0.13
     1    16     17       0.11       0.13       0.12
     1    15     16       0.12       0.13       0.12
     1    14     15       0.12       0.13       0.11
     1    13     14       0.12       0.13       0.11
     1    12     13       0.12       0.13       0.10
 
 Time of computation ->  20241230.230000      in sec:    2588400.
 **  Heading lines  **
 -> 20241230.230000                                                                 
 accuracy OK in  94.63 % of wet grid points ( 99.50 % required)

 accuracy OK in  95.23 % of wet grid points ( 99.50 % required)

 accuracy OK in  95.43 % of wet grid points ( 99.50 % required)

 accuracy OK in  95.63 % of wet grid points ( 99.50 % required)

 accuracy OK in  95.63 % of wet grid points ( 99.50 % required)

  ** WARNING : Differences in wave height at the boundary
 Relative difference between input and computation >=   0.10
                         Hs[m]      Hs[m]      Hs[-]
     ix    iy  index   (input) (computed) (relative)
  --------------------------------------------------
     1    27     28       0.11       0.12       0.11
     2    27     55       0.08       0.11       0.41
     1    26     27       0.11       0.12       0.12
     1    25     26       0.11       0.12       0.13
     1    24     25       0.11       0.12       0.13
     1    23     24       0.11       0.13       0.13
     1    22     23       0.11       0.13       0.14
     1    21     22       0.11       0.13       0.14
     1    20     21       0.11       0.13       0.14
     1    19     20       0.11       0.13       0.14
     1    18     19       0.11       0.13       0.14
     1    17     18       0.11       0.13       0.14
     1    16     17       0.11       0.13       0.13
     1    15     16       0.12       0.13       0.13
     1    14     15       0.12       0.13       0.12
     1    13     14       0.12       0.13       0.12
     1    12     13       0.12       0.13       0.11
     1    11     12       0.12       0.13       0.10
 
 Time of computation ->  20241231.000000      in sec:    2592000.
 **  Heading lines  **
 -> 20241231.000000                                                                 
 accuracy OK in  92.64 % of wet grid points ( 99.50 % required)

 accuracy OK in  95.03 % of wet grid points ( 99.50 % required)

 accuracy OK in  95.23 % of wet grid points ( 99.50 % required)

 accuracy OK in  95.43 % of wet grid points ( 99.50 % required)

 accuracy OK in  95.43 % of wet grid points ( 99.50 % required)

  ** WARNING : Differences in wave height at the boundary
 Relative difference between input and computation >=   0.10
                         Hs[m]      Hs[m]      Hs[-]
     ix    iy  index   (input) (computed) (relative)
  --------------------------------------------------
     1    27     28       0.11       0.12       0.13
     2    27     55       0.08       0.11       0.43
     1    26     27       0.11       0.12       0.13
     1    25     26       0.11       0.12       0.14
     1    24     25       0.11       0.13       0.14
     1    23     24       0.11       0.13       0.15
     1    22     23       0.11       0.13       0.15
     1    21     22       0.11       0.13       0.15
     1    20     21       0.11       0.13       0.15
     1    19     20       0.11       0.13       0.15
     1    18     19       0.11       0.13       0.15
     1    17     18       0.11       0.13       0.15
     1    16     17       0.11       0.13       0.14
     1    15     16       0.12       0.13       0.14
     1    14     15       0.12       0.13       0.14
     1    13     14       0.12       0.13       0.13
     1    12     13       0.12       0.13       0.13
     1    11     12       0.12       0.13       0.12
     1    10     11       0.12       0.13       0.11
     1     9     10       0.12       0.13       0.10
 
    
 STOP
